
**** 06/01/20 15:54:14 ***** PSpice 16.6.0 (October 2012) ***** ID# 0 ********

 ** Profile: "SCHEMATIC1-2"  [ C:\Users\art_home\university\schem\sem6\dana\amp-PSpiceFiles\SCHEMATIC1\2.sim ] 


 ****     CIRCUIT DESCRIPTION


******************************************************************************




** Creating circuit file "2.cir" 
** WARNING: THIS AUTOMATICALLY GENERATED FILE MAY BE OVERWRITTEN BY SUBSEQUENT SIMULATIONS

*Libraries: 
* Profile Libraries :
* Local Libraries :
* From [PSPICE NETLIST] section of C:\Users\art_home\AppData\Roaming\SPB_Data\cdssetup\OrCAD_PSpice/16.6.0/PSpice.ini file:
.lib "nom.lib" 

*Analysis directives: 
.TRAN  0 1000ns 0 10ns 
.STEP LIN PARAM RPOT 0.0 1 0.05 
.OPTIONS ADVCONV
.PROBE64 V(alias(*)) I(alias(*)) W(alias(*)) D(alias(*)) NOISE(alias(*)) 
.INC "..\SCHEMATIC1.net" 



**** INCLUDING SCHEMATIC1.net ****
* source AMP
X_U1         N00225 N00194 +3.3 0 N00185 lmv321/NS
V_V1         +3.3 0 3.3vdc
R_R1         0 N00194  1k TC=0,0 
V_V2         N00225 0 0.01Vdc
X_R2         N00194 N00194 N00185 POT PARAMS: SET={RPOT} VALUE=100K
.PARAM  rpot=0.5

**** RESUMING 2.cir ****
.END

**** 06/01/20 15:54:14 ***** PSpice 16.6.0 (October 2012) ***** ID# 0 ********

 ** Profile: "SCHEMATIC1-2"  [ C:\Users\art_home\university\schem\sem6\dana\amp-PSpiceFiles\SCHEMATIC1\2.sim ] 


 ****     Diode MODEL PARAMETERS


******************************************************************************




               X_U1.DMOD1      X_U1.DMOD2      
          IS   10.000000E-15   10.000000E-18 


**** 06/01/20 15:54:14 ***** PSpice 16.6.0 (October 2012) ***** ID# 0 ********

 ** Profile: "SCHEMATIC1-2"  [ C:\Users\art_home\university\schem\sem6\dana\amp-PSpiceFiles\SCHEMATIC1\2.sim ] 


 ****     BJT MODEL PARAMETERS


******************************************************************************




               X_U1.NPN1       X_U1.PNP1       
               NPN             PNP             
       LEVEL    1               1            
          IS    1.000000E-15    1.000000E-15 
          BF  100             100            
          NF    1               1            
          BR    1               1            
          NR    1               1            
         ISS    0               0            
          RE    0               0            
          RC    0               0            
         CJE    0               0            
         VJE     .75             .75         
         CJC    0               0            
         VJC     .75             .75         
         MJC     .33             .33         
        XCJC    1               1            
         CJS    0               0            
         VJS     .75             .75         
          KF    0               0            
          AF    1               1            
          CN    2.42            2.2          
           D     .87             .52         


**** 06/01/20 15:54:14 ***** PSpice 16.6.0 (October 2012) ***** ID# 0 ********

 ** Profile: "SCHEMATIC1-2"  [ C:\Users\art_home\university\schem\sem6\dana\amp-PSpiceFiles\SCHEMATIC1\2.sim ] 


 ****     Resistor MODEL PARAMETERS


******************************************************************************




               X_U1.MRAX       X_U1.MRIB       X_U1.MRISC      
           R    1               1               1            
         TC1   10.000000E-06    2.837130E-03   -3.000000E-03 


**** 06/01/20 15:54:14 ***** PSpice 16.6.0 (October 2012) ***** ID# 0 ********

 ** Profile: "SCHEMATIC1-2"  [ C:\Users\art_home\university\schem\sem6\dana\amp-PSpiceFiles\SCHEMATIC1\2.sim ] 


 ****     INITIAL TRANSIENT SOLUTION       TEMPERATURE =   27.000 DEG C

 ****     CURRENT STEP                     PARAM RPOT =    0     


******************************************************************************



 NODE   VOLTAGE     NODE   VOLTAGE     NODE   VOLTAGE     NODE   VOLTAGE


( +3.3)    3.3000  (N00185)     .0161 (N00194)     .0161 (N00225)     .0100     

(X_U1.10)    1.6500                   (X_U1.11)     .0540                       

(X_U1.17)    1.6500                   (X_U1.18)     .0161                       

(X_U1.19)     .0100                   (X_U1.21)     .4000                       

(X_U1.22)    3.7000                   (X_U1.23)    3.7000                       

(X_U1.24)    3.3051                   (X_U1.25)    2.6500                       

(X_U1.26)    2.6500                   (X_U1.27)    2.4838                       

(X_U1.28)    2.1969                   (X_U1.29)    1.6500                       

(X_U1.31)    5.6500                   (X_U1.32)    4.6500                       

(X_U1.33)    3.6500                   (X_U1.34)    2.6500                       

(X_U1.38)     .0540                   (X_U1.39)     .0540                       

(X_U1.40)    3.3000                   (X_U1.41)     .0818                       

(X_U1.42)    3.3000                   (X_U1.43)    1.6500                       

(X_U1.44)    1.6500                   (X_U1.45)    1.6500                       

(X_U1.50)    0.0000                   (X_U1.51)  100.9500                       

(X_U1.52)  -97.6500                   (X_U1.57)    1.6378                       

(X_U1.58)    1.6500                   (X_U1.59)    -.0317                       

(X_U1.71)    -.0312                   (X_U1.72)    -.6529                       

(X_U1.73)     .6705                   (X_U1.74)    3.3000                       

(X_U1.75)     .0100                   (X_U1.76)    3.3000                       

(X_U1.77)    0.0000                   (X_U1.78)     .0163                       

(X_U1.79)     .0161                   (X_U1.81)     .0162                       

(X_U1.86)     .0161                   (X_U1.91)    1.6500                       

(X_U1.92)    1.6500                   (X_U1.93)    2.1983                       

(X_U1.94)     .0540                   (X_U1.95)     .2000                       

(X_U1.96)     .0540                   (X_U1.97)    2.5000                       

(X_U1.98)     .0540                   (X_U1.99)     .0540                       

(X_U1.120)    3.6500                  (X_U1.121)    2.6500                      

(X_U1.122)    2.6570                  (X_U1.710)     .0287                      

(X_U1.720)    -.6377                  




    VOLTAGE SOURCE CURRENTS
    NAME         CURRENT

    V_V1        -1.461E-04
    V_V2        -1.767E-08
    X_U1.VOFF   -4.049E-13
    X_U1.VSENS1   1.000E-03
    X_U1.VTEMP   1.522E-08
    X_U1.VCMX   -1.568E-06
    X_U1.VPSX    0.000E+00
    X_U1.VCXX    5.426E-12
    X_U1.VOOP    9.657E-05
    X_U1.VOON   -1.226E-05
    X_U1.VOX     1.610E-05
    X_U1.VFX1    1.610E-05
    X_U1.VFX2   -5.583E-13

    TOTAL POWER DISSIPATION   4.82E-04  WATTS


**** 06/01/20 15:54:14 ***** PSpice 16.6.0 (October 2012) ***** ID# 0 ********

 ** Profile: "SCHEMATIC1-2"  [ C:\Users\art_home\university\schem\sem6\dana\amp-PSpiceFiles\SCHEMATIC1\2.sim ] 


 ****     INITIAL TRANSIENT SOLUTION       TEMPERATURE =   27.000 DEG C

 ****     CURRENT STEP                     PARAM RPOT =     .05  


******************************************************************************



 NODE   VOLTAGE     NODE   VOLTAGE     NODE   VOLTAGE     NODE   VOLTAGE


( +3.3)    3.3000  (N00185)     .0966 (N00194)     .0161 (N00225)     .0100     

(X_U1.10)    1.6500                   (X_U1.11)     .0540                       

(X_U1.17)    1.6500                   (X_U1.18)     .0161                       

(X_U1.19)     .0100                   (X_U1.21)     .4000                       

(X_U1.22)    3.7000                   (X_U1.23)    3.7000                       

(X_U1.24)    3.3051                   (X_U1.25)    2.6500                       

(X_U1.26)    2.6500                   (X_U1.27)    2.4838                       

(X_U1.28)    2.1969                   (X_U1.29)    1.6500                       

(X_U1.31)    5.6500                   (X_U1.32)    4.6500                       

(X_U1.33)    3.6500                   (X_U1.34)    2.6500                       

(X_U1.38)     .0540                   (X_U1.39)     .0540                       

(X_U1.40)    3.3000                   (X_U1.41)     .0818                       

(X_U1.42)    3.3000                   (X_U1.43)    1.6500                       

(X_U1.44)    1.6500                   (X_U1.45)    1.6500                       

(X_U1.50)    0.0000                   (X_U1.51)  100.9500                       

(X_U1.52)  -97.6500                   (X_U1.57)    1.6389                       

(X_U1.58)    1.6500                   (X_U1.59)     .1238                       

(X_U1.71)     .1234                   (X_U1.72)    -.6301                       

(X_U1.73)     .8231                   (X_U1.74)    3.3000                       

(X_U1.75)     .0100                   (X_U1.76)    3.3000                       

(X_U1.77)    0.0000                   (X_U1.78)     .0982                       

(X_U1.79)     .0952                   (X_U1.81)     .0967                       

(X_U1.86)     .0966                   (X_U1.91)    1.6500                       

(X_U1.92)    1.6500                   (X_U1.93)    2.1983                       

(X_U1.94)     .0540                   (X_U1.95)     .2000                       

(X_U1.96)     .0540                   (X_U1.97)    2.5000                       

(X_U1.98)     .0540                   (X_U1.99)     .0540                       

(X_U1.120)    3.6500                  (X_U1.121)    2.6500                      

(X_U1.122)    2.6570                  (X_U1.710)     .1819                      

(X_U1.720)    -.5314                  




    VOLTAGE SOURCE CURRENTS
    NAME         CURRENT

    V_V1        -1.461E-04
    V_V2        -1.767E-08
    X_U1.VOFF   -4.049E-13
    X_U1.VSENS1   1.000E-03
    X_U1.VTEMP   1.522E-08
    X_U1.VCMX   -1.568E-06
    X_U1.VPSX    0.000E+00
    X_U1.VCXX    5.426E-12
    X_U1.VOOP    1.488E-03
    X_U1.VOON    1.434E-03
    X_U1.VOX     1.610E-05
    X_U1.VFX1    1.610E-05
    X_U1.VFX2   -5.583E-13

    TOTAL POWER DISSIPATION   4.82E-04  WATTS


**** 06/01/20 15:54:14 ***** PSpice 16.6.0 (October 2012) ***** ID# 0 ********

 ** Profile: "SCHEMATIC1-2"  [ C:\Users\art_home\university\schem\sem6\dana\amp-PSpiceFiles\SCHEMATIC1\2.sim ] 


 ****     INITIAL TRANSIENT SOLUTION       TEMPERATURE =   27.000 DEG C

 ****     CURRENT STEP                     PARAM RPOT =     .1   


******************************************************************************



 NODE   VOLTAGE     NODE   VOLTAGE     NODE   VOLTAGE     NODE   VOLTAGE


( +3.3)    3.3000  (N00185)     .1770 (N00194)     .0161 (N00225)     .0100     

(X_U1.10)    1.6500                   (X_U1.11)     .0540                       

(X_U1.17)    1.6500                   (X_U1.18)     .0161                       

(X_U1.19)     .0100                   (X_U1.21)     .4000                       

(X_U1.22)    3.7000                   (X_U1.23)    3.7000                       

(X_U1.24)    3.3051                   (X_U1.25)    2.6500                       

(X_U1.26)    2.6500                   (X_U1.27)    2.4838                       

(X_U1.28)    2.1969                   (X_U1.29)    1.6500                       

(X_U1.31)    5.6500                   (X_U1.32)    4.6500                       

(X_U1.33)    3.6500                   (X_U1.34)    2.6500                       

(X_U1.38)     .0540                   (X_U1.39)     .0540                       

(X_U1.40)    3.3000                   (X_U1.41)     .0818                       

(X_U1.42)    3.3000                   (X_U1.43)    1.6500                       

(X_U1.44)    1.6500                   (X_U1.45)    1.6500                       

(X_U1.50)    0.0000                   (X_U1.51)  100.9500                       

(X_U1.52)  -97.6500                   (X_U1.57)    1.6397                       

(X_U1.58)    1.6500                   (X_U1.59)     .2368                       

(X_U1.71)     .2359                   (X_U1.72)    -.5775                       

(X_U1.73)     .9320                   (X_U1.74)    3.3000                       

(X_U1.75)     .0100                   (X_U1.76)    3.3000                       

(X_U1.77)    0.0000                   (X_U1.78)     .1813                       

(X_U1.79)     .1731                   (X_U1.81)     .1772                       

(X_U1.86)     .1770                   (X_U1.91)    1.6500                       

(X_U1.92)    1.6500                   (X_U1.93)    2.1983                       

(X_U1.94)     .0540                   (X_U1.95)     .2000                       

(X_U1.96)     .0540                   (X_U1.97)    2.5000                       

(X_U1.98)     .0540                   (X_U1.99)     .0540                       

(X_U1.120)    3.6500                  (X_U1.121)    2.6500                      

(X_U1.122)    2.6570                  (X_U1.710)     .2919                      

(X_U1.720)    -.4294                  




    VOLTAGE SOURCE CURRENTS
    NAME         CURRENT

    V_V1        -1.461E-04
    V_V2        -1.767E-08
    X_U1.VOFF   -4.049E-13
    X_U1.VSENS1   1.000E-03
    X_U1.VTEMP   1.522E-08
    X_U1.VCMX   -1.568E-06
    X_U1.VPSX    0.000E+00
    X_U1.VCXX    5.426E-12
    X_U1.VOOP    4.031E-03
    X_U1.VOON    4.010E-03
    X_U1.VOX     1.610E-05
    X_U1.VFX1    1.610E-05
    X_U1.VFX2   -5.583E-13

    TOTAL POWER DISSIPATION   4.82E-04  WATTS


**** 06/01/20 15:54:14 ***** PSpice 16.6.0 (October 2012) ***** ID# 0 ********

 ** Profile: "SCHEMATIC1-2"  [ C:\Users\art_home\university\schem\sem6\dana\amp-PSpiceFiles\SCHEMATIC1\2.sim ] 


 ****     INITIAL TRANSIENT SOLUTION       TEMPERATURE =   27.000 DEG C

 ****     CURRENT STEP                     PARAM RPOT =     .15  


******************************************************************************



 NODE   VOLTAGE     NODE   VOLTAGE     NODE   VOLTAGE     NODE   VOLTAGE


( +3.3)    3.3000  (N00185)     .2575 (N00194)     .0161 (N00225)     .0100     

(X_U1.10)    1.6500                   (X_U1.11)     .0540                       

(X_U1.17)    1.6500                   (X_U1.18)     .0161                       

(X_U1.19)     .0100                   (X_U1.21)     .4000                       

(X_U1.22)    3.7000                   (X_U1.23)    3.7000                       

(X_U1.24)    3.3051                   (X_U1.25)    2.6500                       

(X_U1.26)    2.6500                   (X_U1.27)    2.4838                       

(X_U1.28)    2.1969                   (X_U1.29)    1.6500                       

(X_U1.31)    5.6500                   (X_U1.32)    4.6500                       

(X_U1.33)    3.6500                   (X_U1.34)    2.6500                       

(X_U1.38)     .0540                   (X_U1.39)     .0540                       

(X_U1.40)    3.3000                   (X_U1.41)     .0818                       

(X_U1.42)    3.3000                   (X_U1.43)    1.6500                       

(X_U1.44)    1.6500                   (X_U1.45)    1.6500                       

(X_U1.50)    0.0000                   (X_U1.51)  100.9500                       

(X_U1.52)  -97.6500                   (X_U1.57)    1.6404                       

(X_U1.58)    1.6500                   (X_U1.59)     .3218                       

(X_U1.71)     .3208                   (X_U1.72)    -.5007                       

(X_U1.73)    1.0161                   (X_U1.74)    3.3000                       

(X_U1.75)     .0100                   (X_U1.76)    3.3000                       

(X_U1.77)    0.0000                   (X_U1.78)     .2622                       

(X_U1.79)     .2531                   (X_U1.81)     .2577                       

(X_U1.86)     .2575                   (X_U1.91)    1.6500                       

(X_U1.92)    1.6500                   (X_U1.93)    2.1983                       

(X_U1.94)     .0540                   (X_U1.95)     .2000                       

(X_U1.96)     .0540                   (X_U1.97)    2.5000                       

(X_U1.98)     .0540                   (X_U1.99)     .0540                       

(X_U1.120)    3.6500                  (X_U1.121)    2.6500                      

(X_U1.122)    2.6570                  (X_U1.710)     .3763                      

(X_U1.720)    -.3456                  




    VOLTAGE SOURCE CURRENTS
    NAME         CURRENT

    V_V1        -1.461E-04
    V_V2        -1.767E-08
    X_U1.VOFF   -4.049E-13
    X_U1.VSENS1   1.000E-03
    X_U1.VTEMP   1.522E-08
    X_U1.VCMX   -1.568E-06
    X_U1.VPSX    0.000E+00
    X_U1.VCXX    5.426E-12
    X_U1.VOOP    4.553E-03
    X_U1.VOON    4.536E-03
    X_U1.VOX     1.610E-05
    X_U1.VFX1    1.610E-05
    X_U1.VFX2   -5.583E-13

    TOTAL POWER DISSIPATION   4.82E-04  WATTS


**** 06/01/20 15:54:14 ***** PSpice 16.6.0 (October 2012) ***** ID# 0 ********

 ** Profile: "SCHEMATIC1-2"  [ C:\Users\art_home\university\schem\sem6\dana\amp-PSpiceFiles\SCHEMATIC1\2.sim ] 


 ****     INITIAL TRANSIENT SOLUTION       TEMPERATURE =   27.000 DEG C

 ****     CURRENT STEP                     PARAM RPOT =     .2   


******************************************************************************



 NODE   VOLTAGE     NODE   VOLTAGE     NODE   VOLTAGE     NODE   VOLTAGE


( +3.3)    3.3000  (N00185)     .3380 (N00194)     .0161 (N00225)     .0100     

(X_U1.10)    1.6500                   (X_U1.11)     .0540                       

(X_U1.17)    1.6500                   (X_U1.18)     .0161                       

(X_U1.19)     .0100                   (X_U1.21)     .4000                       

(X_U1.22)    3.7000                   (X_U1.23)    3.7000                       

(X_U1.24)    3.3051                   (X_U1.25)    2.6500                       

(X_U1.26)    2.6500                   (X_U1.27)    2.4838                       

(X_U1.28)    2.1969                   (X_U1.29)    1.6500                       

(X_U1.31)    5.6500                   (X_U1.32)    4.6500                       

(X_U1.33)    3.6500                   (X_U1.34)    2.6500                       

(X_U1.38)     .0540                   (X_U1.39)     .0540                       

(X_U1.40)    3.3000                   (X_U1.41)     .0818                       

(X_U1.42)    3.3000                   (X_U1.43)    1.6500                       

(X_U1.44)    1.6500                   (X_U1.45)    1.6500                       

(X_U1.50)    0.0000                   (X_U1.51)  100.9500                       

(X_U1.52)  -97.6500                   (X_U1.57)    1.6409                       

(X_U1.58)    1.6500                   (X_U1.59)     .4025                       

(X_U1.71)     .4015                   (X_U1.72)    -.4204                       

(X_U1.73)    1.0968                   (X_U1.74)    3.3000                       

(X_U1.75)     .0100                   (X_U1.76)    3.3000                       

(X_U1.77)    0.0000                   (X_U1.78)     .3427                       

(X_U1.79)     .3335                   (X_U1.81)     .3381                       

(X_U1.86)     .3380                   (X_U1.91)    1.6500                       

(X_U1.92)    1.6500                   (X_U1.93)    2.1983                       

(X_U1.94)     .0540                   (X_U1.95)     .2000                       

(X_U1.96)     .0540                   (X_U1.97)    2.5000                       

(X_U1.98)     .0540                   (X_U1.99)     .0540                       

(X_U1.120)    3.6500                  (X_U1.121)    2.6500                      

(X_U1.122)    2.6570                  (X_U1.710)     .4569                      

(X_U1.720)    -.2650                  




    VOLTAGE SOURCE CURRENTS
    NAME         CURRENT

    V_V1        -1.461E-04
    V_V2        -1.767E-08
    X_U1.VOFF   -4.049E-13
    X_U1.VSENS1   1.000E-03
    X_U1.VTEMP   1.522E-08
    X_U1.VCMX   -1.568E-06
    X_U1.VPSX    0.000E+00
    X_U1.VCXX    5.426E-12
    X_U1.VOOP    4.581E-03
    X_U1.VOON    4.565E-03
    X_U1.VOX     1.609E-05
    X_U1.VFX1    1.609E-05
    X_U1.VFX2   -5.583E-13

    TOTAL POWER DISSIPATION   4.82E-04  WATTS


**** 06/01/20 15:54:14 ***** PSpice 16.6.0 (October 2012) ***** ID# 0 ********

 ** Profile: "SCHEMATIC1-2"  [ C:\Users\art_home\university\schem\sem6\dana\amp-PSpiceFiles\SCHEMATIC1\2.sim ] 


 ****     INITIAL TRANSIENT SOLUTION       TEMPERATURE =   27.000 DEG C

 ****     CURRENT STEP                     PARAM RPOT =     .25  


******************************************************************************



 NODE   VOLTAGE     NODE   VOLTAGE     NODE   VOLTAGE     NODE   VOLTAGE


( +3.3)    3.3000  (N00185)     .4184 (N00194)     .0161 (N00225)     .0100     

(X_U1.10)    1.6500                   (X_U1.11)     .0540                       

(X_U1.17)    1.6500                   (X_U1.18)     .0161                       

(X_U1.19)     .0100                   (X_U1.21)     .4000                       

(X_U1.22)    3.7000                   (X_U1.23)    3.7000                       

(X_U1.24)    3.3051                   (X_U1.25)    2.6500                       

(X_U1.26)    2.6500                   (X_U1.27)    2.4838                       

(X_U1.28)    2.1969                   (X_U1.29)    1.6500                       

(X_U1.31)    5.6500                   (X_U1.32)    4.6500                       

(X_U1.33)    3.6500                   (X_U1.34)    2.6500                       

(X_U1.38)     .0540                   (X_U1.39)     .0540                       

(X_U1.40)    3.3000                   (X_U1.41)     .0818                       

(X_U1.42)    3.3000                   (X_U1.43)    1.6500                       

(X_U1.44)    1.6500                   (X_U1.45)    1.6500                       

(X_U1.50)    0.0000                   (X_U1.51)  100.9500                       

(X_U1.52)  -97.6500                   (X_U1.57)    1.6415                       

(X_U1.58)    1.6500                   (X_U1.59)     .4830                       

(X_U1.71)     .4820                   (X_U1.72)    -.3400                       

(X_U1.73)    1.1772                   (X_U1.74)    3.3000                       

(X_U1.75)     .0100                   (X_U1.76)    3.3000                       

(X_U1.77)    0.0000                   (X_U1.78)     .4232                       

(X_U1.79)     .4140                   (X_U1.81)     .4186                       

(X_U1.86)     .4184                   (X_U1.91)    1.6500                       

(X_U1.92)    1.6500                   (X_U1.93)    2.1983                       

(X_U1.94)     .0540                   (X_U1.95)     .2000                       

(X_U1.96)     .0540                   (X_U1.97)    2.5000                       

(X_U1.98)     .0540                   (X_U1.99)     .0540                       

(X_U1.120)    3.6500                  (X_U1.121)    2.6500                      

(X_U1.122)    2.6570                  (X_U1.710)     .5374                      

(X_U1.720)    -.1845                  




    VOLTAGE SOURCE CURRENTS
    NAME         CURRENT

    V_V1        -1.461E-04
    V_V2        -1.767E-08
    X_U1.VOFF   -4.049E-13
    X_U1.VSENS1   1.000E-03
    X_U1.VTEMP   1.522E-08
    X_U1.VCMX   -1.568E-06
    X_U1.VPSX    0.000E+00
    X_U1.VCXX    5.426E-12
    X_U1.VOOP    4.582E-03
    X_U1.VOON    4.566E-03
    X_U1.VOX     1.609E-05
    X_U1.VFX1    1.609E-05
    X_U1.VFX2   -5.583E-13

    TOTAL POWER DISSIPATION   4.82E-04  WATTS


**** 06/01/20 15:54:14 ***** PSpice 16.6.0 (October 2012) ***** ID# 0 ********

 ** Profile: "SCHEMATIC1-2"  [ C:\Users\art_home\university\schem\sem6\dana\amp-PSpiceFiles\SCHEMATIC1\2.sim ] 


 ****     INITIAL TRANSIENT SOLUTION       TEMPERATURE =   27.000 DEG C

 ****     CURRENT STEP                     PARAM RPOT =     .3   


******************************************************************************



 NODE   VOLTAGE     NODE   VOLTAGE     NODE   VOLTAGE     NODE   VOLTAGE


( +3.3)    3.3000  (N00185)     .4989 (N00194)     .0161 (N00225)     .0100     

(X_U1.10)    1.6500                   (X_U1.11)     .0540                       

(X_U1.17)    1.6500                   (X_U1.18)     .0161                       

(X_U1.19)     .0100                   (X_U1.21)     .4000                       

(X_U1.22)    3.7000                   (X_U1.23)    3.7000                       

(X_U1.24)    3.3051                   (X_U1.25)    2.6500                       

(X_U1.26)    2.6500                   (X_U1.27)    2.4838                       

(X_U1.28)    2.1969                   (X_U1.29)    1.6500                       

(X_U1.31)    5.6500                   (X_U1.32)    4.6500                       

(X_U1.33)    3.6500                   (X_U1.34)    2.6500                       

(X_U1.38)     .0540                   (X_U1.39)     .0540                       

(X_U1.40)    3.3000                   (X_U1.41)     .0818                       

(X_U1.42)    3.3000                   (X_U1.43)    1.6500                       

(X_U1.44)    1.6500                   (X_U1.45)    1.6500                       

(X_U1.50)    0.0000                   (X_U1.51)  100.9500                       

(X_U1.52)  -97.6500                   (X_U1.57)    1.6421                       

(X_U1.58)    1.6500                   (X_U1.59)     .5634                       

(X_U1.71)     .5624                   (X_U1.72)    -.2595                       

(X_U1.73)    1.2577                   (X_U1.74)    3.3000                       

(X_U1.75)     .0100                   (X_U1.76)    3.3000                       

(X_U1.77)    0.0000                   (X_U1.78)     .5036                       

(X_U1.79)     .4944                   (X_U1.81)     .4990                       

(X_U1.86)     .4989                   (X_U1.91)    1.6500                       

(X_U1.92)    1.6500                   (X_U1.93)    2.1983                       

(X_U1.94)     .0540                   (X_U1.95)     .2000                       

(X_U1.96)     .0540                   (X_U1.97)    2.5000                       

(X_U1.98)     .0540                   (X_U1.99)     .0540                       

(X_U1.120)    3.6500                  (X_U1.121)    2.6500                      

(X_U1.122)    2.6570                  (X_U1.710)     .6178                      

(X_U1.720)    -.1041                  




    VOLTAGE SOURCE CURRENTS
    NAME         CURRENT

    V_V1        -1.461E-04
    V_V2        -1.767E-08
    X_U1.VOFF   -4.049E-13
    X_U1.VSENS1   1.000E-03
    X_U1.VTEMP   1.522E-08
    X_U1.VCMX   -1.568E-06
    X_U1.VPSX    0.000E+00
    X_U1.VCXX    5.426E-12
    X_U1.VOOP    4.582E-03
    X_U1.VOON    4.566E-03
    X_U1.VOX     1.609E-05
    X_U1.VFX1    1.609E-05
    X_U1.VFX2   -5.583E-13

    TOTAL POWER DISSIPATION   4.82E-04  WATTS


**** 06/01/20 15:54:14 ***** PSpice 16.6.0 (October 2012) ***** ID# 0 ********

 ** Profile: "SCHEMATIC1-2"  [ C:\Users\art_home\university\schem\sem6\dana\amp-PSpiceFiles\SCHEMATIC1\2.sim ] 


 ****     INITIAL TRANSIENT SOLUTION       TEMPERATURE =   27.000 DEG C

 ****     CURRENT STEP                     PARAM RPOT =     .35  


******************************************************************************



 NODE   VOLTAGE     NODE   VOLTAGE     NODE   VOLTAGE     NODE   VOLTAGE


( +3.3)    3.3000  (N00185)     .5793 (N00194)     .0161 (N00225)     .0100     

(X_U1.10)    1.6500                   (X_U1.11)     .0539                       

(X_U1.17)    1.6500                   (X_U1.18)     .0161                       

(X_U1.19)     .0100                   (X_U1.21)     .4000                       

(X_U1.22)    3.7000                   (X_U1.23)    3.7000                       

(X_U1.24)    3.3051                   (X_U1.25)    2.6500                       

(X_U1.26)    2.6500                   (X_U1.27)    2.4838                       

(X_U1.28)    2.1969                   (X_U1.29)    1.6500                       

(X_U1.31)    5.6500                   (X_U1.32)    4.6500                       

(X_U1.33)    3.6500                   (X_U1.34)    2.6500                       

(X_U1.38)     .0539                   (X_U1.39)     .0539                       

(X_U1.40)    3.3000                   (X_U1.41)     .0818                       

(X_U1.42)    3.3000                   (X_U1.43)    1.6500                       

(X_U1.44)    1.6500                   (X_U1.45)    1.6500                       

(X_U1.50)    0.0000                   (X_U1.51)  100.9500                       

(X_U1.52)  -97.6500                   (X_U1.57)    1.6427                       

(X_U1.58)    1.6500                   (X_U1.59)     .6438                       

(X_U1.71)     .6428                   (X_U1.72)    -.1791                       

(X_U1.73)    1.3381                   (X_U1.74)    3.3000                       

(X_U1.75)     .0100                   (X_U1.76)    3.3000                       

(X_U1.77)    0.0000                   (X_U1.78)     .5841                       

(X_U1.79)     .5748                   (X_U1.81)     .5794                       

(X_U1.86)     .5793                   (X_U1.91)    1.6500                       

(X_U1.92)    1.6500                   (X_U1.93)    2.1983                       

(X_U1.94)     .0539                   (X_U1.95)     .2000                       

(X_U1.96)     .0539                   (X_U1.97)    2.5000                       

(X_U1.98)     .0539                   (X_U1.99)     .0539                       

(X_U1.120)    3.6500                  (X_U1.121)    2.6500                      

(X_U1.122)    2.6570                  (X_U1.710)     .6983                      

(X_U1.720)    -.0237                  




    VOLTAGE SOURCE CURRENTS
    NAME         CURRENT

    V_V1        -1.461E-04
    V_V2        -1.767E-08
    X_U1.VOFF   -4.049E-13
    X_U1.VSENS1   1.000E-03
    X_U1.VTEMP   1.522E-08
    X_U1.VCMX   -1.568E-06
    X_U1.VPSX    0.000E+00
    X_U1.VCXX    5.426E-12
    X_U1.VOOP    4.582E-03
    X_U1.VOON    4.566E-03
    X_U1.VOX     1.609E-05
    X_U1.VFX1    1.609E-05
    X_U1.VFX2   -5.583E-13

    TOTAL POWER DISSIPATION   4.82E-04  WATTS


**** 06/01/20 15:54:14 ***** PSpice 16.6.0 (October 2012) ***** ID# 0 ********

 ** Profile: "SCHEMATIC1-2"  [ C:\Users\art_home\university\schem\sem6\dana\amp-PSpiceFiles\SCHEMATIC1\2.sim ] 


 ****     INITIAL TRANSIENT SOLUTION       TEMPERATURE =   27.000 DEG C

 ****     CURRENT STEP                     PARAM RPOT =     .4   


******************************************************************************



 NODE   VOLTAGE     NODE   VOLTAGE     NODE   VOLTAGE     NODE   VOLTAGE


( +3.3)    3.3000  (N00185)     .6597 (N00194)     .0161 (N00225)     .0100     

(X_U1.10)    1.6500                   (X_U1.11)     .0539                       

(X_U1.17)    1.6500                   (X_U1.18)     .0161                       

(X_U1.19)     .0100                   (X_U1.21)     .4000                       

(X_U1.22)    3.7000                   (X_U1.23)    3.7000                       

(X_U1.24)    3.3051                   (X_U1.25)    2.6500                       

(X_U1.26)    2.6500                   (X_U1.27)    2.4838                       

(X_U1.28)    2.1969                   (X_U1.29)    1.6500                       

(X_U1.31)    5.6500                   (X_U1.32)    4.6500                       

(X_U1.33)    3.6500                   (X_U1.34)    2.6500                       

(X_U1.38)     .0539                   (X_U1.39)     .0539                       

(X_U1.40)    3.3000                   (X_U1.41)     .0818                       

(X_U1.42)    3.3000                   (X_U1.43)    1.6500                       

(X_U1.44)    1.6500                   (X_U1.45)    1.6500                       

(X_U1.50)    0.0000                   (X_U1.51)  100.9500                       

(X_U1.52)  -97.6500                   (X_U1.57)    1.6433                       

(X_U1.58)    1.6500                   (X_U1.59)     .7243                       

(X_U1.71)     .7233                   (X_U1.72)    -.0987                       

(X_U1.73)    1.4185                   (X_U1.74)    3.3000                       

(X_U1.75)     .0100                   (X_U1.76)    3.3000                       

(X_U1.77)    0.0000                   (X_U1.78)     .6645                       

(X_U1.79)     .6553                   (X_U1.81)     .6599                       

(X_U1.86)     .6597                   (X_U1.91)    1.6500                       

(X_U1.92)    1.6500                   (X_U1.93)    2.1983                       

(X_U1.94)     .0539                   (X_U1.95)     .2000                       

(X_U1.96)     .0539                   (X_U1.97)    2.5000                       

(X_U1.98)     .0539                   (X_U1.99)     .0539                       

(X_U1.120)    3.6500                  (X_U1.121)    2.6500                      

(X_U1.122)    2.6570                  (X_U1.710)     .7787                      

(X_U1.720)     .0568                  




    VOLTAGE SOURCE CURRENTS
    NAME         CURRENT

    V_V1        -1.461E-04
    V_V2        -1.767E-08
    X_U1.VOFF   -4.049E-13
    X_U1.VSENS1   1.000E-03
    X_U1.VTEMP   1.522E-08
    X_U1.VCMX   -1.568E-06
    X_U1.VPSX    0.000E+00
    X_U1.VCXX    5.426E-12
    X_U1.VOOP    4.582E-03
    X_U1.VOON    4.566E-03
    X_U1.VOX     1.609E-05
    X_U1.VFX1    1.609E-05
    X_U1.VFX2   -5.583E-13

    TOTAL POWER DISSIPATION   4.82E-04  WATTS


**** 06/01/20 15:54:14 ***** PSpice 16.6.0 (October 2012) ***** ID# 0 ********

 ** Profile: "SCHEMATIC1-2"  [ C:\Users\art_home\university\schem\sem6\dana\amp-PSpiceFiles\SCHEMATIC1\2.sim ] 


 ****     INITIAL TRANSIENT SOLUTION       TEMPERATURE =   27.000 DEG C

 ****     CURRENT STEP                     PARAM RPOT =     .45  


******************************************************************************



 NODE   VOLTAGE     NODE   VOLTAGE     NODE   VOLTAGE     NODE   VOLTAGE


( +3.3)    3.3000  (N00185)     .7402 (N00194)     .0161 (N00225)     .0100     

(X_U1.10)    1.6500                   (X_U1.11)     .0539                       

(X_U1.17)    1.6500                   (X_U1.18)     .0161                       

(X_U1.19)     .0100                   (X_U1.21)     .4000                       

(X_U1.22)    3.7000                   (X_U1.23)    3.7000                       

(X_U1.24)    3.3051                   (X_U1.25)    2.6500                       

(X_U1.26)    2.6500                   (X_U1.27)    2.4838                       

(X_U1.28)    2.1969                   (X_U1.29)    1.6500                       

(X_U1.31)    5.6500                   (X_U1.32)    4.6500                       

(X_U1.33)    3.6500                   (X_U1.34)    2.6500                       

(X_U1.38)     .0539                   (X_U1.39)     .0539                       

(X_U1.40)    3.3000                   (X_U1.41)     .0818                       

(X_U1.42)    3.3000                   (X_U1.43)    1.6500                       

(X_U1.44)    1.6500                   (X_U1.45)    1.6500                       

(X_U1.50)    0.0000                   (X_U1.51)  100.9500                       

(X_U1.52)  -97.6500                   (X_U1.57)    1.6439                       

(X_U1.58)    1.6500                   (X_U1.59)     .8047                       

(X_U1.71)     .8037                   (X_U1.72)    -.0183                       

(X_U1.73)    1.4989                   (X_U1.74)    3.3000                       

(X_U1.75)     .0100                   (X_U1.76)    3.3000                       

(X_U1.77)    0.0000                   (X_U1.78)     .7449                       

(X_U1.79)     .7357                   (X_U1.81)     .7403                       

(X_U1.86)     .7402                   (X_U1.91)    1.6500                       

(X_U1.92)    1.6500                   (X_U1.93)    2.1983                       

(X_U1.94)     .0539                   (X_U1.95)     .2000                       

(X_U1.96)     .0539                   (X_U1.97)    2.5000                       

(X_U1.98)     .0539                   (X_U1.99)     .0539                       

(X_U1.120)    3.6500                  (X_U1.121)    2.6500                      

(X_U1.122)    2.6570                  (X_U1.710)     .8591                      

(X_U1.720)     .1372                  




    VOLTAGE SOURCE CURRENTS
    NAME         CURRENT

    V_V1        -1.461E-04
    V_V2        -1.767E-08
    X_U1.VOFF   -4.049E-13
    X_U1.VSENS1   1.000E-03
    X_U1.VTEMP   1.522E-08
    X_U1.VCMX   -1.568E-06
    X_U1.VPSX    0.000E+00
    X_U1.VCXX    5.426E-12
    X_U1.VOOP    4.582E-03
    X_U1.VOON    4.566E-03
    X_U1.VOX     1.609E-05
    X_U1.VFX1    1.609E-05
    X_U1.VFX2   -5.583E-13

    TOTAL POWER DISSIPATION   4.82E-04  WATTS


**** 06/01/20 15:54:14 ***** PSpice 16.6.0 (October 2012) ***** ID# 0 ********

 ** Profile: "SCHEMATIC1-2"  [ C:\Users\art_home\university\schem\sem6\dana\amp-PSpiceFiles\SCHEMATIC1\2.sim ] 


 ****     INITIAL TRANSIENT SOLUTION       TEMPERATURE =   27.000 DEG C

 ****     CURRENT STEP                     PARAM RPOT =     .5   


******************************************************************************



 NODE   VOLTAGE     NODE   VOLTAGE     NODE   VOLTAGE     NODE   VOLTAGE


( +3.3)    3.3000  (N00185)     .8206 (N00194)     .0161 (N00225)     .0100     

(X_U1.10)    1.6500                   (X_U1.11)     .0539                       

(X_U1.17)    1.6500                   (X_U1.18)     .0161                       

(X_U1.19)     .0100                   (X_U1.21)     .4000                       

(X_U1.22)    3.7000                   (X_U1.23)    3.7000                       

(X_U1.24)    3.3051                   (X_U1.25)    2.6500                       

(X_U1.26)    2.6500                   (X_U1.27)    2.4838                       

(X_U1.28)    2.1969                   (X_U1.29)    1.6500                       

(X_U1.31)    5.6500                   (X_U1.32)    4.6500                       

(X_U1.33)    3.6500                   (X_U1.34)    2.6500                       

(X_U1.38)     .0539                   (X_U1.39)     .0539                       

(X_U1.40)    3.3000                   (X_U1.41)     .0818                       

(X_U1.42)    3.3000                   (X_U1.43)    1.6500                       

(X_U1.44)    1.6500                   (X_U1.45)    1.6500                       

(X_U1.50)    0.0000                   (X_U1.51)  100.9500                       

(X_U1.52)  -97.6500                   (X_U1.57)    1.6445                       

(X_U1.58)    1.6500                   (X_U1.59)     .8851                       

(X_U1.71)     .8841                   (X_U1.72)     .0622                       

(X_U1.73)    1.5794                   (X_U1.74)    3.3000                       

(X_U1.75)     .0100                   (X_U1.76)    3.3000                       

(X_U1.77)    0.0000                   (X_U1.78)     .8253                       

(X_U1.79)     .8161                   (X_U1.81)     .8207                       

(X_U1.86)     .8206                   (X_U1.91)    1.6500                       

(X_U1.92)    1.6500                   (X_U1.93)    2.1983                       

(X_U1.94)     .0539                   (X_U1.95)     .2000                       

(X_U1.96)     .0539                   (X_U1.97)    2.5000                       

(X_U1.98)     .0539                   (X_U1.99)     .0539                       

(X_U1.120)    3.6500                  (X_U1.121)    2.6500                      

(X_U1.122)    2.6570                  (X_U1.710)     .9395                      

(X_U1.720)     .2176                  




    VOLTAGE SOURCE CURRENTS
    NAME         CURRENT

    V_V1        -1.461E-04
    V_V2        -1.767E-08
    X_U1.VOFF   -4.049E-13
    X_U1.VSENS1   1.000E-03
    X_U1.VTEMP   1.522E-08
    X_U1.VCMX   -1.568E-06
    X_U1.VPSX    0.000E+00
    X_U1.VCXX    5.426E-12
    X_U1.VOOP    4.582E-03
    X_U1.VOON    4.566E-03
    X_U1.VOX     1.609E-05
    X_U1.VFX1    1.609E-05
    X_U1.VFX2   -5.583E-13

    TOTAL POWER DISSIPATION   4.82E-04  WATTS


**** 06/01/20 15:54:14 ***** PSpice 16.6.0 (October 2012) ***** ID# 0 ********

 ** Profile: "SCHEMATIC1-2"  [ C:\Users\art_home\university\schem\sem6\dana\amp-PSpiceFiles\SCHEMATIC1\2.sim ] 


 ****     INITIAL TRANSIENT SOLUTION       TEMPERATURE =   27.000 DEG C

 ****     CURRENT STEP                     PARAM RPOT =     .55  


******************************************************************************



 NODE   VOLTAGE     NODE   VOLTAGE     NODE   VOLTAGE     NODE   VOLTAGE


( +3.3)    3.3000  (N00185)     .9010 (N00194)     .0161 (N00225)     .0100     

(X_U1.10)    1.6500                   (X_U1.11)     .0539                       

(X_U1.17)    1.6500                   (X_U1.18)     .0161                       

(X_U1.19)     .0100                   (X_U1.21)     .4000                       

(X_U1.22)    3.7000                   (X_U1.23)    3.7000                       

(X_U1.24)    3.3051                   (X_U1.25)    2.6500                       

(X_U1.26)    2.6500                   (X_U1.27)    2.4838                       

(X_U1.28)    2.1969                   (X_U1.29)    1.6500                       

(X_U1.31)    5.6500                   (X_U1.32)    4.6500                       

(X_U1.33)    3.6500                   (X_U1.34)    2.6500                       

(X_U1.38)     .0539                   (X_U1.39)     .0539                       

(X_U1.40)    3.3000                   (X_U1.41)     .0818                       

(X_U1.42)    3.3000                   (X_U1.43)    1.6500                       

(X_U1.44)    1.6500                   (X_U1.45)    1.6500                       

(X_U1.50)    0.0000                   (X_U1.51)  100.9500                       

(X_U1.52)  -97.6500                   (X_U1.57)    1.6450                       

(X_U1.58)    1.6500                   (X_U1.59)     .9655                       

(X_U1.71)     .9645                   (X_U1.72)     .1426                       

(X_U1.73)    1.6598                   (X_U1.74)    3.3000                       

(X_U1.75)     .0100                   (X_U1.76)    3.3000                       

(X_U1.77)    0.0000                   (X_U1.78)     .9057                       

(X_U1.79)     .8965                   (X_U1.81)     .9011                       

(X_U1.86)     .9010                   (X_U1.91)    1.6500                       

(X_U1.92)    1.6500                   (X_U1.93)    2.1983                       

(X_U1.94)     .0539                   (X_U1.95)     .2000                       

(X_U1.96)     .0539                   (X_U1.97)    2.5000                       

(X_U1.98)     .0539                   (X_U1.99)     .0539                       

(X_U1.120)    3.6500                  (X_U1.121)    2.6500                      

(X_U1.122)    2.6570                  (X_U1.710)    1.0199                      

(X_U1.720)     .2980                  




    VOLTAGE SOURCE CURRENTS
    NAME         CURRENT

    V_V1        -1.461E-04
    V_V2        -1.767E-08
    X_U1.VOFF   -4.049E-13
    X_U1.VSENS1   1.000E-03
    X_U1.VTEMP   1.522E-08
    X_U1.VCMX   -1.568E-06
    X_U1.VPSX    0.000E+00
    X_U1.VCXX    5.426E-12
    X_U1.VOOP    4.582E-03
    X_U1.VOON    4.566E-03
    X_U1.VOX     1.609E-05
    X_U1.VFX1    1.609E-05
    X_U1.VFX2   -5.583E-13

    TOTAL POWER DISSIPATION   4.82E-04  WATTS


**** 06/01/20 15:54:14 ***** PSpice 16.6.0 (October 2012) ***** ID# 0 ********

 ** Profile: "SCHEMATIC1-2"  [ C:\Users\art_home\university\schem\sem6\dana\amp-PSpiceFiles\SCHEMATIC1\2.sim ] 


 ****     INITIAL TRANSIENT SOLUTION       TEMPERATURE =   27.000 DEG C

 ****     CURRENT STEP                     PARAM RPOT =     .6   


******************************************************************************



 NODE   VOLTAGE     NODE   VOLTAGE     NODE   VOLTAGE     NODE   VOLTAGE


( +3.3)    3.3000  (N00185)     .9814 (N00194)     .0161 (N00225)     .0100     

(X_U1.10)    1.6500                   (X_U1.11)     .0539                       

(X_U1.17)    1.6500                   (X_U1.18)     .0161                       

(X_U1.19)     .0100                   (X_U1.21)     .4000                       

(X_U1.22)    3.7000                   (X_U1.23)    3.7000                       

(X_U1.24)    3.3051                   (X_U1.25)    2.6500                       

(X_U1.26)    2.6500                   (X_U1.27)    2.4838                       

(X_U1.28)    2.1969                   (X_U1.29)    1.6500                       

(X_U1.31)    5.6500                   (X_U1.32)    4.6500                       

(X_U1.33)    3.6500                   (X_U1.34)    2.6500                       

(X_U1.38)     .0539                   (X_U1.39)     .0539                       

(X_U1.40)    3.3000                   (X_U1.41)     .0818                       

(X_U1.42)    3.3000                   (X_U1.43)    1.6500                       

(X_U1.44)    1.6500                   (X_U1.45)    1.6500                       

(X_U1.50)    0.0000                   (X_U1.51)  100.9500                       

(X_U1.52)  -97.6500                   (X_U1.57)    1.6456                       

(X_U1.58)    1.6500                   (X_U1.59)    1.0459                       

(X_U1.71)    1.0449                   (X_U1.72)     .2230                       

(X_U1.73)    1.7402                   (X_U1.74)    3.3000                       

(X_U1.75)     .0100                   (X_U1.76)    3.3000                       

(X_U1.77)    0.0000                   (X_U1.78)     .9861                       

(X_U1.79)     .9769                   (X_U1.81)     .9815                       

(X_U1.86)     .9814                   (X_U1.91)    1.6500                       

(X_U1.92)    1.6500                   (X_U1.93)    2.1983                       

(X_U1.94)     .0539                   (X_U1.95)     .2000                       

(X_U1.96)     .0539                   (X_U1.97)    2.5000                       

(X_U1.98)     .0539                   (X_U1.99)     .0539                       

(X_U1.120)    3.6500                  (X_U1.121)    2.6500                      

(X_U1.122)    2.6570                  (X_U1.710)    1.1003                      

(X_U1.720)     .3784                  




    VOLTAGE SOURCE CURRENTS
    NAME         CURRENT

    V_V1        -1.461E-04
    V_V2        -1.767E-08
    X_U1.VOFF   -4.049E-13
    X_U1.VSENS1   1.000E-03
    X_U1.VTEMP   1.522E-08
    X_U1.VCMX   -1.568E-06
    X_U1.VPSX    0.000E+00
    X_U1.VCXX    5.426E-12
    X_U1.VOOP    4.582E-03
    X_U1.VOON    4.566E-03
    X_U1.VOX     1.609E-05
    X_U1.VFX1    1.609E-05
    X_U1.VFX2   -5.583E-13

    TOTAL POWER DISSIPATION   4.82E-04  WATTS


**** 06/01/20 15:54:14 ***** PSpice 16.6.0 (October 2012) ***** ID# 0 ********

 ** Profile: "SCHEMATIC1-2"  [ C:\Users\art_home\university\schem\sem6\dana\amp-PSpiceFiles\SCHEMATIC1\2.sim ] 


 ****     INITIAL TRANSIENT SOLUTION       TEMPERATURE =   27.000 DEG C

 ****     CURRENT STEP                     PARAM RPOT =     .65  


******************************************************************************



 NODE   VOLTAGE     NODE   VOLTAGE     NODE   VOLTAGE     NODE   VOLTAGE


( +3.3)    3.3000  (N00185)    1.0618 (N00194)     .0161 (N00225)     .0100     

(X_U1.10)    1.6500                   (X_U1.11)     .0539                       

(X_U1.17)    1.6500                   (X_U1.18)     .0161                       

(X_U1.19)     .0100                   (X_U1.21)     .4000                       

(X_U1.22)    3.7000                   (X_U1.23)    3.7000                       

(X_U1.24)    3.3051                   (X_U1.25)    2.6500                       

(X_U1.26)    2.6500                   (X_U1.27)    2.4838                       

(X_U1.28)    2.1969                   (X_U1.29)    1.6500                       

(X_U1.31)    5.6500                   (X_U1.32)    4.6500                       

(X_U1.33)    3.6500                   (X_U1.34)    2.6500                       

(X_U1.38)     .0539                   (X_U1.39)     .0539                       

(X_U1.40)    3.3000                   (X_U1.41)     .0818                       

(X_U1.42)    3.3000                   (X_U1.43)    1.6500                       

(X_U1.44)    1.6500                   (X_U1.45)    1.6500                       

(X_U1.50)    0.0000                   (X_U1.51)  100.9500                       

(X_U1.52)  -97.6500                   (X_U1.57)    1.6462                       

(X_U1.58)    1.6500                   (X_U1.59)    1.1263                       

(X_U1.71)    1.1253                   (X_U1.72)     .3033                       

(X_U1.73)    1.8205                   (X_U1.74)    3.3000                       

(X_U1.75)     .0100                   (X_U1.76)    3.3000                       

(X_U1.77)    0.0000                   (X_U1.78)    1.0665                       

(X_U1.79)    1.0573                   (X_U1.81)    1.0619                       

(X_U1.86)    1.0618                   (X_U1.91)    1.6500                       

(X_U1.92)    1.6500                   (X_U1.93)    2.1983                       

(X_U1.94)     .0539                   (X_U1.95)     .2000                       

(X_U1.96)     .0539                   (X_U1.97)    2.5000                       

(X_U1.98)     .0539                   (X_U1.99)     .0539                       

(X_U1.120)    3.6500                  (X_U1.121)    2.6500                      

(X_U1.122)    2.6570                  (X_U1.710)    1.1807                      

(X_U1.720)     .4588                  




    VOLTAGE SOURCE CURRENTS
    NAME         CURRENT

    V_V1        -1.461E-04
    V_V2        -1.767E-08
    X_U1.VOFF   -4.049E-13
    X_U1.VSENS1   1.000E-03
    X_U1.VTEMP   1.522E-08
    X_U1.VCMX   -1.568E-06
    X_U1.VPSX    0.000E+00
    X_U1.VCXX    5.426E-12
    X_U1.VOOP    4.582E-03
    X_U1.VOON    4.566E-03
    X_U1.VOX     1.609E-05
    X_U1.VFX1    1.609E-05
    X_U1.VFX2   -5.583E-13

    TOTAL POWER DISSIPATION   4.82E-04  WATTS


**** 06/01/20 15:54:14 ***** PSpice 16.6.0 (October 2012) ***** ID# 0 ********

 ** Profile: "SCHEMATIC1-2"  [ C:\Users\art_home\university\schem\sem6\dana\amp-PSpiceFiles\SCHEMATIC1\2.sim ] 


 ****     INITIAL TRANSIENT SOLUTION       TEMPERATURE =   27.000 DEG C

 ****     CURRENT STEP                     PARAM RPOT =     .7   


******************************************************************************



 NODE   VOLTAGE     NODE   VOLTAGE     NODE   VOLTAGE     NODE   VOLTAGE


( +3.3)    3.3000  (N00185)    1.1421 (N00194)     .0161 (N00225)     .0100     

(X_U1.10)    1.6500                   (X_U1.11)     .0539                       

(X_U1.17)    1.6500                   (X_U1.18)     .0161                       

(X_U1.19)     .0100                   (X_U1.21)     .4000                       

(X_U1.22)    3.7000                   (X_U1.23)    3.7000                       

(X_U1.24)    3.3051                   (X_U1.25)    2.6500                       

(X_U1.26)    2.6500                   (X_U1.27)    2.4838                       

(X_U1.28)    2.1969                   (X_U1.29)    1.6500                       

(X_U1.31)    5.6500                   (X_U1.32)    4.6500                       

(X_U1.33)    3.6500                   (X_U1.34)    2.6500                       

(X_U1.38)     .0539                   (X_U1.39)     .0539                       

(X_U1.40)    3.3000                   (X_U1.41)     .0818                       

(X_U1.42)    3.3000                   (X_U1.43)    1.6500                       

(X_U1.44)    1.6500                   (X_U1.45)    1.6500                       

(X_U1.50)    0.0000                   (X_U1.51)  100.9500                       

(X_U1.52)  -97.6500                   (X_U1.57)    1.6468                       

(X_U1.58)    1.6500                   (X_U1.59)    1.2067                       

(X_U1.71)    1.2057                   (X_U1.72)     .3837                       

(X_U1.73)    1.9009                   (X_U1.74)    3.3000                       

(X_U1.75)     .0100                   (X_U1.76)    3.3000                       

(X_U1.77)    0.0000                   (X_U1.78)    1.1469                       

(X_U1.79)    1.1377                   (X_U1.81)    1.1423                       

(X_U1.86)    1.1421                   (X_U1.91)    1.6500                       

(X_U1.92)    1.6500                   (X_U1.93)    2.1983                       

(X_U1.94)     .0539                   (X_U1.95)     .2000                       

(X_U1.96)     .0539                   (X_U1.97)    2.5000                       

(X_U1.98)     .0539                   (X_U1.99)     .0539                       

(X_U1.120)    3.6500                  (X_U1.121)    2.6500                      

(X_U1.122)    2.6570                  (X_U1.710)    1.2611                      

(X_U1.720)     .5392                  




    VOLTAGE SOURCE CURRENTS
    NAME         CURRENT

    V_V1        -1.461E-04
    V_V2        -1.767E-08
    X_U1.VOFF   -4.049E-13
    X_U1.VSENS1   1.000E-03
    X_U1.VTEMP   1.522E-08
    X_U1.VCMX   -1.568E-06
    X_U1.VPSX    0.000E+00
    X_U1.VCXX    5.426E-12
    X_U1.VOOP    4.582E-03
    X_U1.VOON    4.566E-03
    X_U1.VOX     1.609E-05
    X_U1.VFX1    1.609E-05
    X_U1.VFX2   -5.583E-13

    TOTAL POWER DISSIPATION   4.82E-04  WATTS


**** 06/01/20 15:54:14 ***** PSpice 16.6.0 (October 2012) ***** ID# 0 ********

 ** Profile: "SCHEMATIC1-2"  [ C:\Users\art_home\university\schem\sem6\dana\amp-PSpiceFiles\SCHEMATIC1\2.sim ] 


 ****     INITIAL TRANSIENT SOLUTION       TEMPERATURE =   27.000 DEG C

 ****     CURRENT STEP                     PARAM RPOT =     .75  


******************************************************************************



 NODE   VOLTAGE     NODE   VOLTAGE     NODE   VOLTAGE     NODE   VOLTAGE


( +3.3)    3.3000  (N00185)    1.2225 (N00194)     .0161 (N00225)     .0100     

(X_U1.10)    1.6500                   (X_U1.11)     .0539                       

(X_U1.17)    1.6500                   (X_U1.18)     .0161                       

(X_U1.19)     .0100                   (X_U1.21)     .4000                       

(X_U1.22)    3.7000                   (X_U1.23)    3.7000                       

(X_U1.24)    3.3051                   (X_U1.25)    2.6500                       

(X_U1.26)    2.6500                   (X_U1.27)    2.4838                       

(X_U1.28)    2.1969                   (X_U1.29)    1.6500                       

(X_U1.31)    5.6500                   (X_U1.32)    4.6500                       

(X_U1.33)    3.6500                   (X_U1.34)    2.6500                       

(X_U1.38)     .0539                   (X_U1.39)     .0539                       

(X_U1.40)    3.3000                   (X_U1.41)     .0818                       

(X_U1.42)    3.3000                   (X_U1.43)    1.6500                       

(X_U1.44)    1.6500                   (X_U1.45)    1.6500                       

(X_U1.50)    0.0000                   (X_U1.51)  100.9500                       

(X_U1.52)  -97.6500                   (X_U1.57)    1.6474                       

(X_U1.58)    1.6500                   (X_U1.59)    1.2870                       

(X_U1.71)    1.2860                   (X_U1.72)     .4641                       

(X_U1.73)    1.9813                   (X_U1.74)    3.3000                       

(X_U1.75)     .0100                   (X_U1.76)    3.3000                       

(X_U1.77)    0.0000                   (X_U1.78)    1.2273                       

(X_U1.79)    1.2180                   (X_U1.81)    1.2226                       

(X_U1.86)    1.2225                   (X_U1.91)    1.6500                       

(X_U1.92)    1.6500                   (X_U1.93)    2.1983                       

(X_U1.94)     .0539                   (X_U1.95)     .2000                       

(X_U1.96)     .0539                   (X_U1.97)    2.5000                       

(X_U1.98)     .0539                   (X_U1.99)     .0539                       

(X_U1.120)    3.6500                  (X_U1.121)    2.6500                      

(X_U1.122)    2.6570                  (X_U1.710)    1.3415                      

(X_U1.720)     .6195                  




    VOLTAGE SOURCE CURRENTS
    NAME         CURRENT

    V_V1        -1.461E-04
    V_V2        -1.767E-08
    X_U1.VOFF   -4.049E-13
    X_U1.VSENS1   1.000E-03
    X_U1.VTEMP   1.522E-08
    X_U1.VCMX   -1.568E-06
    X_U1.VPSX    0.000E+00
    X_U1.VCXX    5.426E-12
    X_U1.VOOP    4.582E-03
    X_U1.VOON    4.566E-03
    X_U1.VOX     1.609E-05
    X_U1.VFX1    1.609E-05
    X_U1.VFX2   -5.583E-13

    TOTAL POWER DISSIPATION   4.82E-04  WATTS


**** 06/01/20 15:54:14 ***** PSpice 16.6.0 (October 2012) ***** ID# 0 ********

 ** Profile: "SCHEMATIC1-2"  [ C:\Users\art_home\university\schem\sem6\dana\amp-PSpiceFiles\SCHEMATIC1\2.sim ] 


 ****     INITIAL TRANSIENT SOLUTION       TEMPERATURE =   27.000 DEG C

 ****     CURRENT STEP                     PARAM RPOT =     .8   


******************************************************************************



 NODE   VOLTAGE     NODE   VOLTAGE     NODE   VOLTAGE     NODE   VOLTAGE


( +3.3)    3.3000  (N00185)    1.3029 (N00194)     .0161 (N00225)     .0100     

(X_U1.10)    1.6500                   (X_U1.11)     .0539                       

(X_U1.17)    1.6500                   (X_U1.18)     .0161                       

(X_U1.19)     .0100                   (X_U1.21)     .4000                       

(X_U1.22)    3.7000                   (X_U1.23)    3.7000                       

(X_U1.24)    3.3051                   (X_U1.25)    2.6500                       

(X_U1.26)    2.6500                   (X_U1.27)    2.4838                       

(X_U1.28)    2.1969                   (X_U1.29)    1.6500                       

(X_U1.31)    5.6500                   (X_U1.32)    4.6500                       

(X_U1.33)    3.6500                   (X_U1.34)    2.6500                       

(X_U1.38)     .0539                   (X_U1.39)     .0539                       

(X_U1.40)    3.3000                   (X_U1.41)     .0818                       

(X_U1.42)    3.3000                   (X_U1.43)    1.6500                       

(X_U1.44)    1.6500                   (X_U1.45)    1.6500                       

(X_U1.50)    0.0000                   (X_U1.51)  100.9500                       

(X_U1.52)  -97.6500                   (X_U1.57)    1.6480                       

(X_U1.58)    1.6500                   (X_U1.59)    1.3674                       

(X_U1.71)    1.3664                   (X_U1.72)     .5445                       

(X_U1.73)    2.0617                   (X_U1.74)    3.3000                       

(X_U1.75)     .0100                   (X_U1.76)    3.3000                       

(X_U1.77)    0.0000                   (X_U1.78)    1.3076                       

(X_U1.79)    1.2984                   (X_U1.81)    1.3030                       

(X_U1.86)    1.3029                   (X_U1.91)    1.6500                       

(X_U1.92)    1.6500                   (X_U1.93)    2.1983                       

(X_U1.94)     .0539                   (X_U1.95)     .2000                       

(X_U1.96)     .0539                   (X_U1.97)    2.5000                       

(X_U1.98)     .0539                   (X_U1.99)     .0539                       

(X_U1.120)    3.6500                  (X_U1.121)    2.6500                      

(X_U1.122)    2.6570                  (X_U1.710)    1.4218                      

(X_U1.720)     .6999                  




    VOLTAGE SOURCE CURRENTS
    NAME         CURRENT

    V_V1        -1.461E-04
    V_V2        -1.767E-08
    X_U1.VOFF   -4.049E-13
    X_U1.VSENS1   1.000E-03
    X_U1.VTEMP   1.522E-08
    X_U1.VCMX   -1.568E-06
    X_U1.VPSX    0.000E+00
    X_U1.VCXX    5.426E-12
    X_U1.VOOP    4.582E-03
    X_U1.VOON    4.567E-03
    X_U1.VOX     1.608E-05
    X_U1.VFX1    1.608E-05
    X_U1.VFX2   -5.583E-13

    TOTAL POWER DISSIPATION   4.82E-04  WATTS


**** 06/01/20 15:54:14 ***** PSpice 16.6.0 (October 2012) ***** ID# 0 ********

 ** Profile: "SCHEMATIC1-2"  [ C:\Users\art_home\university\schem\sem6\dana\amp-PSpiceFiles\SCHEMATIC1\2.sim ] 


 ****     INITIAL TRANSIENT SOLUTION       TEMPERATURE =   27.000 DEG C

 ****     CURRENT STEP                     PARAM RPOT =     .85  


******************************************************************************



 NODE   VOLTAGE     NODE   VOLTAGE     NODE   VOLTAGE     NODE   VOLTAGE


( +3.3)    3.3000  (N00185)    1.3832 (N00194)     .0161 (N00225)     .0100     

(X_U1.10)    1.6500                   (X_U1.11)     .0539                       

(X_U1.17)    1.6500                   (X_U1.18)     .0161                       

(X_U1.19)     .0100                   (X_U1.21)     .4000                       

(X_U1.22)    3.7000                   (X_U1.23)    3.7000                       

(X_U1.24)    3.3051                   (X_U1.25)    2.6500                       

(X_U1.26)    2.6500                   (X_U1.27)    2.4838                       

(X_U1.28)    2.1969                   (X_U1.29)    1.6500                       

(X_U1.31)    5.6500                   (X_U1.32)    4.6500                       

(X_U1.33)    3.6500                   (X_U1.34)    2.6500                       

(X_U1.38)     .0539                   (X_U1.39)     .0539                       

(X_U1.40)    3.3000                   (X_U1.41)     .0818                       

(X_U1.42)    3.3000                   (X_U1.43)    1.6500                       

(X_U1.44)    1.6500                   (X_U1.45)    1.6500                       

(X_U1.50)    0.0000                   (X_U1.51)  100.9500                       

(X_U1.52)  -97.6500                   (X_U1.57)    1.6485                       

(X_U1.58)    1.6500                   (X_U1.59)    1.4478                       

(X_U1.71)    1.4468                   (X_U1.72)     .6248                       

(X_U1.73)    2.1420                   (X_U1.74)    3.3000                       

(X_U1.75)     .0100                   (X_U1.76)    3.3000                       

(X_U1.77)    0.0000                   (X_U1.78)    1.3880                       

(X_U1.79)    1.3787                   (X_U1.81)    1.3834                       

(X_U1.86)    1.3832                   (X_U1.91)    1.6500                       

(X_U1.92)    1.6500                   (X_U1.93)    2.1983                       

(X_U1.94)     .0539                   (X_U1.95)     .2000                       

(X_U1.96)     .0539                   (X_U1.97)    2.5000                       

(X_U1.98)     .0539                   (X_U1.99)     .0539                       

(X_U1.120)    3.6500                  (X_U1.121)    2.6500                      

(X_U1.122)    2.6570                  (X_U1.710)    1.5022                      

(X_U1.720)     .7803                  




    VOLTAGE SOURCE CURRENTS
    NAME         CURRENT

    V_V1        -1.461E-04
    V_V2        -1.767E-08
    X_U1.VOFF   -4.049E-13
    X_U1.VSENS1   1.000E-03
    X_U1.VTEMP   1.522E-08
    X_U1.VCMX   -1.568E-06
    X_U1.VPSX    0.000E+00
    X_U1.VCXX    5.426E-12
    X_U1.VOOP    4.582E-03
    X_U1.VOON    4.567E-03
    X_U1.VOX     1.608E-05
    X_U1.VFX1    1.608E-05
    X_U1.VFX2   -5.583E-13

    TOTAL POWER DISSIPATION   4.82E-04  WATTS


**** 06/01/20 15:54:14 ***** PSpice 16.6.0 (October 2012) ***** ID# 0 ********

 ** Profile: "SCHEMATIC1-2"  [ C:\Users\art_home\university\schem\sem6\dana\amp-PSpiceFiles\SCHEMATIC1\2.sim ] 


 ****     INITIAL TRANSIENT SOLUTION       TEMPERATURE =   27.000 DEG C

 ****     CURRENT STEP                     PARAM RPOT =     .9   


******************************************************************************



 NODE   VOLTAGE     NODE   VOLTAGE     NODE   VOLTAGE     NODE   VOLTAGE


( +3.3)    3.3000  (N00185)    1.4636 (N00194)     .0161 (N00225)     .0100     

(X_U1.10)    1.6500                   (X_U1.11)     .0539                       

(X_U1.17)    1.6500                   (X_U1.18)     .0161                       

(X_U1.19)     .0100                   (X_U1.21)     .4000                       

(X_U1.22)    3.7000                   (X_U1.23)    3.7000                       

(X_U1.24)    3.3051                   (X_U1.25)    2.6500                       

(X_U1.26)    2.6500                   (X_U1.27)    2.4838                       

(X_U1.28)    2.1969                   (X_U1.29)    1.6500                       

(X_U1.31)    5.6500                   (X_U1.32)    4.6500                       

(X_U1.33)    3.6500                   (X_U1.34)    2.6500                       

(X_U1.38)     .0539                   (X_U1.39)     .0539                       

(X_U1.40)    3.3000                   (X_U1.41)     .0818                       

(X_U1.42)    3.3000                   (X_U1.43)    1.6500                       

(X_U1.44)    1.6500                   (X_U1.45)    1.6500                       

(X_U1.50)    0.0000                   (X_U1.51)  100.9500                       

(X_U1.52)  -97.6500                   (X_U1.57)    1.6491                       

(X_U1.58)    1.6500                   (X_U1.59)    1.5281                       

(X_U1.71)    1.5271                   (X_U1.72)     .7052                       

(X_U1.73)    2.2224                   (X_U1.74)    3.3000                       

(X_U1.75)     .0100                   (X_U1.76)    3.3000                       

(X_U1.77)    0.0000                   (X_U1.78)    1.4683                       

(X_U1.79)    1.4591                   (X_U1.81)    1.4637                       

(X_U1.86)    1.4636                   (X_U1.91)    1.6500                       

(X_U1.92)    1.6500                   (X_U1.93)    2.1983                       

(X_U1.94)     .0539                   (X_U1.95)     .2000                       

(X_U1.96)     .0539                   (X_U1.97)    2.5000                       

(X_U1.98)     .0539                   (X_U1.99)     .0539                       

(X_U1.120)    3.6500                  (X_U1.121)    2.6500                      

(X_U1.122)    2.6570                  (X_U1.710)    1.5825                      

(X_U1.720)     .8606                  




    VOLTAGE SOURCE CURRENTS
    NAME         CURRENT

    V_V1        -1.461E-04
    V_V2        -1.767E-08
    X_U1.VOFF   -4.049E-13
    X_U1.VSENS1   1.000E-03
    X_U1.VTEMP   1.522E-08
    X_U1.VCMX   -1.568E-06
    X_U1.VPSX    0.000E+00
    X_U1.VCXX    5.427E-12
    X_U1.VOOP    4.583E-03
    X_U1.VOON    4.567E-03
    X_U1.VOX     1.608E-05
    X_U1.VFX1    1.608E-05
    X_U1.VFX2   -5.583E-13

    TOTAL POWER DISSIPATION   4.82E-04  WATTS


**** 06/01/20 15:54:14 ***** PSpice 16.6.0 (October 2012) ***** ID# 0 ********

 ** Profile: "SCHEMATIC1-2"  [ C:\Users\art_home\university\schem\sem6\dana\amp-PSpiceFiles\SCHEMATIC1\2.sim ] 


 ****     INITIAL TRANSIENT SOLUTION       TEMPERATURE =   27.000 DEG C

 ****     CURRENT STEP                     PARAM RPOT =     .95  


******************************************************************************



 NODE   VOLTAGE     NODE   VOLTAGE     NODE   VOLTAGE     NODE   VOLTAGE


( +3.3)    3.3000  (N00185)    1.5439 (N00194)     .0161 (N00225)     .0100     

(X_U1.10)    1.6500                   (X_U1.11)     .0539                       

(X_U1.17)    1.6500                   (X_U1.18)     .0161                       

(X_U1.19)     .0100                   (X_U1.21)     .4000                       

(X_U1.22)    3.7000                   (X_U1.23)    3.7000                       

(X_U1.24)    3.3051                   (X_U1.25)    2.6500                       

(X_U1.26)    2.6500                   (X_U1.27)    2.4838                       

(X_U1.28)    2.1969                   (X_U1.29)    1.6500                       

(X_U1.31)    5.6500                   (X_U1.32)    4.6500                       

(X_U1.33)    3.6500                   (X_U1.34)    2.6500                       

(X_U1.38)     .0539                   (X_U1.39)     .0539                       

(X_U1.40)    3.3000                   (X_U1.41)     .0818                       

(X_U1.42)    3.3000                   (X_U1.43)    1.6500                       

(X_U1.44)    1.6500                   (X_U1.45)    1.6500                       

(X_U1.50)    0.0000                   (X_U1.51)  100.9500                       

(X_U1.52)  -97.6500                   (X_U1.57)    1.6497                       

(X_U1.58)    1.6500                   (X_U1.59)    1.6085                       

(X_U1.71)    1.6075                   (X_U1.72)     .7855                       

(X_U1.73)    2.3027                   (X_U1.74)    3.3000                       

(X_U1.75)     .0100                   (X_U1.76)    3.3000                       

(X_U1.77)    0.0000                   (X_U1.78)    1.5487                       

(X_U1.79)    1.5394                   (X_U1.81)    1.5440                       

(X_U1.86)    1.5439                   (X_U1.91)    1.6500                       

(X_U1.92)    1.6500                   (X_U1.93)    2.1983                       

(X_U1.94)     .0539                   (X_U1.95)     .2000                       

(X_U1.96)     .0539                   (X_U1.97)    2.5000                       

(X_U1.98)     .0539                   (X_U1.99)     .0539                       

(X_U1.120)    3.6500                  (X_U1.121)    2.6500                      

(X_U1.122)    2.6570                  (X_U1.710)    1.6629                      

(X_U1.720)     .9409                  




    VOLTAGE SOURCE CURRENTS
    NAME         CURRENT

    V_V1        -1.461E-04
    V_V2        -1.767E-08
    X_U1.VOFF   -4.049E-13
    X_U1.VSENS1   1.000E-03
    X_U1.VTEMP   1.522E-08
    X_U1.VCMX   -1.568E-06
    X_U1.VPSX    0.000E+00
    X_U1.VCXX    5.427E-12
    X_U1.VOOP    4.583E-03
    X_U1.VOON    4.567E-03
    X_U1.VOX     1.608E-05
    X_U1.VFX1    1.608E-05
    X_U1.VFX2   -5.583E-13

    TOTAL POWER DISSIPATION   4.82E-04  WATTS


**** 06/01/20 15:54:14 ***** PSpice 16.6.0 (October 2012) ***** ID# 0 ********

 ** Profile: "SCHEMATIC1-2"  [ C:\Users\art_home\university\schem\sem6\dana\amp-PSpiceFiles\SCHEMATIC1\2.sim ] 


 ****     INITIAL TRANSIENT SOLUTION       TEMPERATURE =   27.000 DEG C

 ****     CURRENT STEP                     PARAM RPOT =    1     


******************************************************************************



 NODE   VOLTAGE     NODE   VOLTAGE     NODE   VOLTAGE     NODE   VOLTAGE


( +3.3)    3.3000  (N00185)    1.6242 (N00194)     .0161 (N00225)     .0100     

(X_U1.10)    1.6500                   (X_U1.11)     .0539                       

(X_U1.17)    1.6500                   (X_U1.18)     .0161                       

(X_U1.19)     .0100                   (X_U1.21)     .4000                       

(X_U1.22)    3.7000                   (X_U1.23)    3.7000                       

(X_U1.24)    3.3051                   (X_U1.25)    2.6500                       

(X_U1.26)    2.6500                   (X_U1.27)    2.4838                       

(X_U1.28)    2.1969                   (X_U1.29)    1.6500                       

(X_U1.31)    5.6500                   (X_U1.32)    4.6500                       

(X_U1.33)    3.6500                   (X_U1.34)    2.6500                       

(X_U1.38)     .0539                   (X_U1.39)     .0539                       

(X_U1.40)    3.3000                   (X_U1.41)     .0818                       

(X_U1.42)    3.3000                   (X_U1.43)    1.6500                       

(X_U1.44)    1.6500                   (X_U1.45)    1.6500                       

(X_U1.50)    0.0000                   (X_U1.51)  100.9500                       

(X_U1.52)  -97.6500                   (X_U1.57)    1.6503                       

(X_U1.58)    1.6500                   (X_U1.59)    1.6888                       

(X_U1.71)    1.6878                   (X_U1.72)     .8658                       

(X_U1.73)    2.3830                   (X_U1.74)    3.3000                       

(X_U1.75)     .0100                   (X_U1.76)    3.3000                       

(X_U1.77)    0.0000                   (X_U1.78)    1.6290                       

(X_U1.79)    1.6198                   (X_U1.81)    1.6244                       

(X_U1.86)    1.6242                   (X_U1.91)    1.6500                       

(X_U1.92)    1.6500                   (X_U1.93)    2.1983                       

(X_U1.94)     .0539                   (X_U1.95)     .2000                       

(X_U1.96)     .0539                   (X_U1.97)    2.5000                       

(X_U1.98)     .0539                   (X_U1.99)     .0539                       

(X_U1.120)    3.6500                  (X_U1.121)    2.6500                      

(X_U1.122)    2.6570                  (X_U1.710)    1.7432                      

(X_U1.720)    1.0213                  




    VOLTAGE SOURCE CURRENTS
    NAME         CURRENT

    V_V1        -1.461E-04
    V_V2        -1.767E-08
    X_U1.VOFF   -4.049E-13
    X_U1.VSENS1   1.000E-03
    X_U1.VTEMP   1.522E-08
    X_U1.VCMX   -1.568E-06
    X_U1.VPSX    0.000E+00
    X_U1.VCXX    5.427E-12
    X_U1.VOOP    4.583E-03
    X_U1.VOON    4.567E-03
    X_U1.VOX     1.608E-05
    X_U1.VFX1    1.608E-05
    X_U1.VFX2   -5.583E-13

    TOTAL POWER DISSIPATION   4.82E-04  WATTS



          JOB CONCLUDED

**** 06/01/20 15:54:14 ***** PSpice 16.6.0 (October 2012) ***** ID# 0 ********

 ** Profile: "SCHEMATIC1-2"  [ C:\Users\art_home\university\schem\sem6\dana\amp-PSpiceFiles\SCHEMATIC1\2.sim ] 


 ****     JOB STATISTICS SUMMARY

 ****     CURRENT STEP                     PARAM RPOT =    1     


******************************************************************************



  Total job time (using Solver 1)   =         .47
