
**** 06/01/20 15:50:22 ***** PSpice 16.6.0 (October 2012) ***** ID# 0 ********

 ** Profile: "SCHEMATIC1-1"  [ C:\Users\art_home\university\schem\sem6\dana\amp-PSpiceFiles\SCHEMATIC1\1.sim ] 


 ****     CIRCUIT DESCRIPTION


******************************************************************************




** Creating circuit file "1.cir" 
** WARNING: THIS AUTOMATICALLY GENERATED FILE MAY BE OVERWRITTEN BY SUBSEQUENT SIMULATIONS

*Libraries: 
* Profile Libraries :
* Local Libraries :
* From [PSPICE NETLIST] section of C:\Users\art_home\AppData\Roaming\SPB_Data\cdssetup\OrCAD_PSpice/16.6.0/PSpice.ini file:
.lib "nom.lib" 

*Analysis directives: 
.TRAN  0 1000ns 0 10ns 
.STEP LIN V_V2 0vdc 17m 1m 
.OPTIONS ADVCONV
.PROBE64 V(alias(*)) I(alias(*)) W(alias(*)) D(alias(*)) NOISE(alias(*)) 
.INC "..\SCHEMATIC1.net" 



**** INCLUDING SCHEMATIC1.net ****
* source AMP
X_U1         N00225 N00194 +3.3 0 N00185 lmv321/NS
V_V1         +3.3 0 3.3vdc
R_R1         0 N00194  1k TC=0,0 
V_V2         N00225 0 0.01Vdc
X_R2         N00194 N00185 N00185 POT PARAMS: SET={RPOT} VALUE=100K
.PARAM  rpot=0.5

**** RESUMING 1.cir ****
.END

**** 06/01/20 15:50:22 ***** PSpice 16.6.0 (October 2012) ***** ID# 0 ********

 ** Profile: "SCHEMATIC1-1"  [ C:\Users\art_home\university\schem\sem6\dana\amp-PSpiceFiles\SCHEMATIC1\1.sim ] 


 ****     Diode MODEL PARAMETERS


******************************************************************************




               X_U1.DMOD1      X_U1.DMOD2      
          IS   10.000000E-15   10.000000E-18 


**** 06/01/20 15:50:22 ***** PSpice 16.6.0 (October 2012) ***** ID# 0 ********

 ** Profile: "SCHEMATIC1-1"  [ C:\Users\art_home\university\schem\sem6\dana\amp-PSpiceFiles\SCHEMATIC1\1.sim ] 


 ****     BJT MODEL PARAMETERS


******************************************************************************




               X_U1.NPN1       X_U1.PNP1       
               NPN             PNP             
       LEVEL    1               1            
          IS    1.000000E-15    1.000000E-15 
          BF  100             100            
          NF    1               1            
          BR    1               1            
          NR    1               1            
         ISS    0               0            
          RE    0               0            
          RC    0               0            
         CJE    0               0            
         VJE     .75             .75         
         CJC    0               0            
         VJC     .75             .75         
         MJC     .33             .33         
        XCJC    1               1            
         CJS    0               0            
         VJS     .75             .75         
          KF    0               0            
          AF    1               1            
          CN    2.42            2.2          
           D     .87             .52         


**** 06/01/20 15:50:22 ***** PSpice 16.6.0 (October 2012) ***** ID# 0 ********

 ** Profile: "SCHEMATIC1-1"  [ C:\Users\art_home\university\schem\sem6\dana\amp-PSpiceFiles\SCHEMATIC1\1.sim ] 


 ****     Resistor MODEL PARAMETERS


******************************************************************************




               X_U1.MRAX       X_U1.MRIB       X_U1.MRISC      
           R    1               1               1            
         TC1   10.000000E-06    2.837130E-03   -3.000000E-03 


**** 06/01/20 15:50:22 ***** PSpice 16.6.0 (October 2012) ***** ID# 0 ********

 ** Profile: "SCHEMATIC1-1"  [ C:\Users\art_home\university\schem\sem6\dana\amp-PSpiceFiles\SCHEMATIC1\1.sim ] 


 ****     INITIAL TRANSIENT SOLUTION       TEMPERATURE =   27.000 DEG C

 ****     CURRENT STEP                     V_V2 =    0     


******************************************************************************



 NODE   VOLTAGE     NODE   VOLTAGE     NODE   VOLTAGE     NODE   VOLTAGE


( +3.3)    3.3000  (N00185)     .3106 (N00194)     .0061 (N00225)    0.0000     

(X_U1.10)    1.6500                   (X_U1.11)     .0442                       

(X_U1.17)    1.6500                   (X_U1.18)     .0061                       

(X_U1.19)-17.67E-06                   (X_U1.21)     .4000                       

(X_U1.22)    3.7000                   (X_U1.23)    3.7000                       

(X_U1.24)    3.3051                   (X_U1.25)    2.6500                       

(X_U1.26)    2.6500                   (X_U1.27)    2.4838                       

(X_U1.28)    2.1969                   (X_U1.29)    1.6500                       

(X_U1.31)    5.6500                   (X_U1.32)    4.6500                       

(X_U1.33)    3.6500                   (X_U1.34)    2.6500                       

(X_U1.38)     .0442                   (X_U1.39)     .0442                       

(X_U1.40)    3.3000                   (X_U1.41)     .0723                       

(X_U1.42)    3.3000                   (X_U1.43)    1.6500                       

(X_U1.44)    1.6500                   (X_U1.45)    1.6500                       

(X_U1.50)    0.0000                   (X_U1.51)  100.9500                       

(X_U1.52)  -97.6500                   (X_U1.57)    1.6407                       

(X_U1.58)    1.6500                   (X_U1.59)     .3749                       

(X_U1.71)     .3739                   (X_U1.72)    -.4479                       

(X_U1.73)    1.0692                   (X_U1.74)    3.3000                       

(X_U1.75)     .0100                   (X_U1.76)    3.3000                       

(X_U1.77)    0.0000                   (X_U1.78)     .3152                       

(X_U1.79)     .3060                   (X_U1.81)     .3106                       

(X_U1.86)     .3106                   (X_U1.91)    1.6500                       

(X_U1.92)    1.6500                   (X_U1.93)    2.1732                       

(X_U1.94)     .0442                   (X_U1.95)     .2000                       

(X_U1.96)     .0442                   (X_U1.97)    2.5000                       

(X_U1.98)     .0442                   (X_U1.99)     .0442                       

(X_U1.120)    3.6500                  (X_U1.121)    2.6500                      

(X_U1.122)    2.6570                  (X_U1.710)     .4294                      

(X_U1.720)    -.2926                  




    VOLTAGE SOURCE CURRENTS
    NAME         CURRENT

    V_V1        -1.361E-04
    V_V2        -1.767E-08
    X_U1.VOFF   -4.049E-13
    X_U1.VSENS1   1.000E-03
    X_U1.VTEMP   1.522E-08
    X_U1.VCMX   -1.578E-06
    X_U1.VPSX    0.000E+00
    X_U1.VCXX    6.743E-12
    X_U1.VOOP    4.573E-03
    X_U1.VOON    4.567E-03
    X_U1.VOX     6.089E-06
    X_U1.VFX1    6.089E-06
    X_U1.VFX2   -5.332E-13

    TOTAL POWER DISSIPATION   4.49E-04  WATTS


**** 06/01/20 15:50:22 ***** PSpice 16.6.0 (October 2012) ***** ID# 0 ********

 ** Profile: "SCHEMATIC1-1"  [ C:\Users\art_home\university\schem\sem6\dana\amp-PSpiceFiles\SCHEMATIC1\1.sim ] 


 ****     INITIAL TRANSIENT SOLUTION       TEMPERATURE =   27.000 DEG C

 ****     CURRENT STEP                     V_V2 =    1.0000E-03


******************************************************************************



 NODE   VOLTAGE     NODE   VOLTAGE     NODE   VOLTAGE     NODE   VOLTAGE


( +3.3)    3.3000  (N00185)     .3616 (N00194)     .0071 (N00225)     .0010     

(X_U1.10)    1.6500                   (X_U1.11)     .0452                       

(X_U1.17)    1.6500                   (X_U1.18)     .0071                       

(X_U1.19) 982.3E-06                   (X_U1.21)     .4000                       

(X_U1.22)    3.7000                   (X_U1.23)    3.7000                       

(X_U1.24)    3.3051                   (X_U1.25)    2.6500                       

(X_U1.26)    2.6500                   (X_U1.27)    2.4838                       

(X_U1.28)    2.1969                   (X_U1.29)    1.6500                       

(X_U1.31)    5.6500                   (X_U1.32)    4.6500                       

(X_U1.33)    3.6500                   (X_U1.34)    2.6500                       

(X_U1.38)     .0452                   (X_U1.39)     .0452                       

(X_U1.40)    3.3000                   (X_U1.41)     .0732                       

(X_U1.42)    3.3000                   (X_U1.43)    1.6500                       

(X_U1.44)    1.6500                   (X_U1.45)    1.6500                       

(X_U1.50)    0.0000                   (X_U1.51)  100.9500                       

(X_U1.52)  -97.6500                   (X_U1.57)    1.6411                       

(X_U1.58)    1.6500                   (X_U1.59)     .4260                       

(X_U1.71)     .4250                   (X_U1.72)    -.3970                       

(X_U1.73)    1.1202                   (X_U1.74)    3.3000                       

(X_U1.75)     .0100                   (X_U1.76)    3.3000                       

(X_U1.77)    0.0000                   (X_U1.78)     .3662                       

(X_U1.79)     .3570                   (X_U1.81)     .3616                       

(X_U1.86)     .3616                   (X_U1.91)    1.6500                       

(X_U1.92)    1.6500                   (X_U1.93)    2.1771                       

(X_U1.94)     .0452                   (X_U1.95)     .2000                       

(X_U1.96)     .0452                   (X_U1.97)    2.5000                       

(X_U1.98)     .0452                   (X_U1.99)     .0452                       

(X_U1.120)    3.6500                  (X_U1.121)    2.6500                      

(X_U1.122)    2.6570                  (X_U1.710)     .4804                      

(X_U1.720)    -.2415                  




    VOLTAGE SOURCE CURRENTS
    NAME         CURRENT

    V_V1        -1.371E-04
    V_V2        -1.767E-08
    X_U1.VOFF   -4.049E-13
    X_U1.VSENS1   1.000E-03
    X_U1.VTEMP   1.522E-08
    X_U1.VCMX   -1.577E-06
    X_U1.VPSX    0.000E+00
    X_U1.VCXX    6.588E-12
    X_U1.VOOP    4.577E-03
    X_U1.VOON    4.570E-03
    X_U1.VOX     7.089E-06
    X_U1.VFX1    7.089E-06
    X_U1.VFX2   -5.371E-13

    TOTAL POWER DISSIPATION   4.52E-04  WATTS


**** 06/01/20 15:50:22 ***** PSpice 16.6.0 (October 2012) ***** ID# 0 ********

 ** Profile: "SCHEMATIC1-1"  [ C:\Users\art_home\university\schem\sem6\dana\amp-PSpiceFiles\SCHEMATIC1\1.sim ] 


 ****     INITIAL TRANSIENT SOLUTION       TEMPERATURE =   27.000 DEG C

 ****     CURRENT STEP                     V_V2 =    2.0000E-03


******************************************************************************



 NODE   VOLTAGE     NODE   VOLTAGE     NODE   VOLTAGE     NODE   VOLTAGE


( +3.3)    3.3000  (N00185)     .4126 (N00194)     .0081 (N00225)     .0020     

(X_U1.10)    1.6500                   (X_U1.11)     .0461                       

(X_U1.17)    1.6500                   (X_U1.18)     .0081                       

(X_U1.19)     .0020                   (X_U1.21)     .4000                       

(X_U1.22)    3.7000                   (X_U1.23)    3.7000                       

(X_U1.24)    3.3051                   (X_U1.25)    2.6500                       

(X_U1.26)    2.6500                   (X_U1.27)    2.4838                       

(X_U1.28)    2.1969                   (X_U1.29)    1.6500                       

(X_U1.31)    5.6500                   (X_U1.32)    4.6500                       

(X_U1.33)    3.6500                   (X_U1.34)    2.6500                       

(X_U1.38)     .0461                   (X_U1.39)     .0461                       

(X_U1.40)    3.3000                   (X_U1.41)     .0742                       

(X_U1.42)    3.3000                   (X_U1.43)    1.6500                       

(X_U1.44)    1.6500                   (X_U1.45)    1.6500                       

(X_U1.50)    0.0000                   (X_U1.51)  100.9500                       

(X_U1.52)  -97.6500                   (X_U1.57)    1.6415                       

(X_U1.58)    1.6500                   (X_U1.59)     .4770                       

(X_U1.71)     .4760                   (X_U1.72)    -.3459                       

(X_U1.73)    1.1712                   (X_U1.74)    3.3000                       

(X_U1.75)     .0100                   (X_U1.76)    3.3000                       

(X_U1.77)    0.0000                   (X_U1.78)     .4172                       

(X_U1.79)     .4080                   (X_U1.81)     .4126                       

(X_U1.86)     .4126                   (X_U1.91)    1.6500                       

(X_U1.92)    1.6500                   (X_U1.93)    2.1805                       

(X_U1.94)     .0461                   (X_U1.95)     .2000                       

(X_U1.96)     .0461                   (X_U1.97)    2.5000                       

(X_U1.98)     .0461                   (X_U1.99)     .0461                       

(X_U1.120)    3.6500                  (X_U1.121)    2.6500                      

(X_U1.122)    2.6570                  (X_U1.710)     .5314                      

(X_U1.720)    -.1905                  




    VOLTAGE SOURCE CURRENTS
    NAME         CURRENT

    V_V1        -1.381E-04
    V_V2        -1.767E-08
    X_U1.VOFF   -4.049E-13
    X_U1.VSENS1   1.000E-03
    X_U1.VTEMP   1.522E-08
    X_U1.VCMX   -1.576E-06
    X_U1.VPSX    0.000E+00
    X_U1.VCXX    6.439E-12
    X_U1.VOOP    4.578E-03
    X_U1.VOON    4.570E-03
    X_U1.VOX     8.090E-06
    X_U1.VFX1    8.090E-06
    X_U1.VFX2   -5.405E-13

    TOTAL POWER DISSIPATION   4.56E-04  WATTS


**** 06/01/20 15:50:22 ***** PSpice 16.6.0 (October 2012) ***** ID# 0 ********

 ** Profile: "SCHEMATIC1-1"  [ C:\Users\art_home\university\schem\sem6\dana\amp-PSpiceFiles\SCHEMATIC1\1.sim ] 


 ****     INITIAL TRANSIENT SOLUTION       TEMPERATURE =   27.000 DEG C

 ****     CURRENT STEP                     V_V2 =    3.0000E-03


******************************************************************************



 NODE   VOLTAGE     NODE   VOLTAGE     NODE   VOLTAGE     NODE   VOLTAGE


( +3.3)    3.3000  (N00185)     .4636 (N00194)     .0091 (N00225)     .0030     

(X_U1.10)    1.6500                   (X_U1.11)     .0471                       

(X_U1.17)    1.6500                   (X_U1.18)     .0091                       

(X_U1.19)     .0030                   (X_U1.21)     .4000                       

(X_U1.22)    3.7000                   (X_U1.23)    3.7000                       

(X_U1.24)    3.3051                   (X_U1.25)    2.6500                       

(X_U1.26)    2.6500                   (X_U1.27)    2.4838                       

(X_U1.28)    2.1969                   (X_U1.29)    1.6500                       

(X_U1.31)    5.6500                   (X_U1.32)    4.6500                       

(X_U1.33)    3.6500                   (X_U1.34)    2.6500                       

(X_U1.38)     .0471                   (X_U1.39)     .0471                       

(X_U1.40)    3.3000                   (X_U1.41)     .0751                       

(X_U1.42)    3.3000                   (X_U1.43)    1.6500                       

(X_U1.44)    1.6500                   (X_U1.45)    1.6500                       

(X_U1.50)    0.0000                   (X_U1.51)  100.9500                       

(X_U1.52)  -97.6500                   (X_U1.57)    1.6419                       

(X_U1.58)    1.6500                   (X_U1.59)     .5280                       

(X_U1.71)     .5270                   (X_U1.72)    -.2949                       

(X_U1.73)    1.2223                   (X_U1.74)    3.3000                       

(X_U1.75)     .0100                   (X_U1.76)    3.3000                       

(X_U1.77)    0.0000                   (X_U1.78)     .4683                       

(X_U1.79)     .4590                   (X_U1.81)     .4636                       

(X_U1.86)     .4636                   (X_U1.91)    1.6500                       

(X_U1.92)    1.6500                   (X_U1.93)    2.1835                       

(X_U1.94)     .0471                   (X_U1.95)     .2000                       

(X_U1.96)     .0471                   (X_U1.97)    2.5000                       

(X_U1.98)     .0471                   (X_U1.99)     .0471                       

(X_U1.120)    3.6500                  (X_U1.121)    2.6500                      

(X_U1.122)    2.6570                  (X_U1.710)     .5824                      

(X_U1.720)    -.1395                  




    VOLTAGE SOURCE CURRENTS
    NAME         CURRENT

    V_V1        -1.391E-04
    V_V2        -1.767E-08
    X_U1.VOFF   -4.049E-13
    X_U1.VSENS1   1.000E-03
    X_U1.VTEMP   1.522E-08
    X_U1.VCMX   -1.575E-06
    X_U1.VPSX    0.000E+00
    X_U1.VCXX    6.296E-12
    X_U1.VOOP    4.579E-03
    X_U1.VOON    4.570E-03
    X_U1.VOX     9.090E-06
    X_U1.VFX1    9.090E-06
    X_U1.VFX2   -5.435E-13

    TOTAL POWER DISSIPATION   4.59E-04  WATTS


**** 06/01/20 15:50:22 ***** PSpice 16.6.0 (October 2012) ***** ID# 0 ********

 ** Profile: "SCHEMATIC1-1"  [ C:\Users\art_home\university\schem\sem6\dana\amp-PSpiceFiles\SCHEMATIC1\1.sim ] 


 ****     INITIAL TRANSIENT SOLUTION       TEMPERATURE =   27.000 DEG C

 ****     CURRENT STEP                     V_V2 =    4.0000E-03


******************************************************************************



 NODE   VOLTAGE     NODE   VOLTAGE     NODE   VOLTAGE     NODE   VOLTAGE


( +3.3)    3.3000  (N00185)     .5146 (N00194)     .0101 (N00225)     .0040     

(X_U1.10)    1.6500                   (X_U1.11)     .0481                       

(X_U1.17)    1.6500                   (X_U1.18)     .0101                       

(X_U1.19)     .0040                   (X_U1.21)     .4000                       

(X_U1.22)    3.7000                   (X_U1.23)    3.7000                       

(X_U1.24)    3.3051                   (X_U1.25)    2.6500                       

(X_U1.26)    2.6500                   (X_U1.27)    2.4838                       

(X_U1.28)    2.1969                   (X_U1.29)    1.6500                       

(X_U1.31)    5.6500                   (X_U1.32)    4.6500                       

(X_U1.33)    3.6500                   (X_U1.34)    2.6500                       

(X_U1.38)     .0481                   (X_U1.39)     .0481                       

(X_U1.40)    3.3000                   (X_U1.41)     .0761                       

(X_U1.42)    3.3000                   (X_U1.43)    1.6500                       

(X_U1.44)    1.6500                   (X_U1.45)    1.6500                       

(X_U1.50)    0.0000                   (X_U1.51)  100.9500                       

(X_U1.52)  -97.6500                   (X_U1.57)    1.6422                       

(X_U1.58)    1.6500                   (X_U1.59)     .5790                       

(X_U1.71)     .5780                   (X_U1.72)    -.2439                       

(X_U1.73)    1.2733                   (X_U1.74)    3.3000                       

(X_U1.75)     .0100                   (X_U1.76)    3.3000                       

(X_U1.77)    0.0000                   (X_U1.78)     .5193                       

(X_U1.79)     .5100                   (X_U1.81)     .5146                       

(X_U1.86)     .5146                   (X_U1.91)    1.6500                       

(X_U1.92)    1.6500                   (X_U1.93)    2.1862                       

(X_U1.94)     .0481                   (X_U1.95)     .2000                       

(X_U1.96)     .0481                   (X_U1.97)    2.5000                       

(X_U1.98)     .0481                   (X_U1.99)     .0481                       

(X_U1.120)    3.6500                  (X_U1.121)    2.6500                      

(X_U1.122)    2.6570                  (X_U1.710)     .6334                      

(X_U1.720)    -.0885                  




    VOLTAGE SOURCE CURRENTS
    NAME         CURRENT

    V_V1        -1.401E-04
    V_V2        -1.767E-08
    X_U1.VOFF   -4.049E-13
    X_U1.VSENS1   1.000E-03
    X_U1.VTEMP   1.522E-08
    X_U1.VCMX   -1.574E-06
    X_U1.VPSX    0.000E+00
    X_U1.VCXX    6.157E-12
    X_U1.VOOP    4.579E-03
    X_U1.VOON    4.569E-03
    X_U1.VOX     1.009E-05
    X_U1.VFX1    1.009E-05
    X_U1.VFX2   -5.462E-13

    TOTAL POWER DISSIPATION   4.62E-04  WATTS


**** 06/01/20 15:50:22 ***** PSpice 16.6.0 (October 2012) ***** ID# 0 ********

 ** Profile: "SCHEMATIC1-1"  [ C:\Users\art_home\university\schem\sem6\dana\amp-PSpiceFiles\SCHEMATIC1\1.sim ] 


 ****     INITIAL TRANSIENT SOLUTION       TEMPERATURE =   27.000 DEG C

 ****     CURRENT STEP                     V_V2 =    5.0000E-03


******************************************************************************



 NODE   VOLTAGE     NODE   VOLTAGE     NODE   VOLTAGE     NODE   VOLTAGE


( +3.3)    3.3000  (N00185)     .5656 (N00194)     .0111 (N00225)     .0050     

(X_U1.10)    1.6500                   (X_U1.11)     .0491                       

(X_U1.17)    1.6500                   (X_U1.18)     .0111                       

(X_U1.19)     .0050                   (X_U1.21)     .4000                       

(X_U1.22)    3.7000                   (X_U1.23)    3.7000                       

(X_U1.24)    3.3051                   (X_U1.25)    2.6500                       

(X_U1.26)    2.6500                   (X_U1.27)    2.4838                       

(X_U1.28)    2.1969                   (X_U1.29)    1.6500                       

(X_U1.31)    5.6500                   (X_U1.32)    4.6500                       

(X_U1.33)    3.6500                   (X_U1.34)    2.6500                       

(X_U1.38)     .0491                   (X_U1.39)     .0491                       

(X_U1.40)    3.3000                   (X_U1.41)     .0770                       

(X_U1.42)    3.3000                   (X_U1.43)    1.6500                       

(X_U1.44)    1.6500                   (X_U1.45)    1.6500                       

(X_U1.50)    0.0000                   (X_U1.51)  100.9500                       

(X_U1.52)  -97.6500                   (X_U1.57)    1.6426                       

(X_U1.58)    1.6500                   (X_U1.59)     .6300                       

(X_U1.71)     .6290                   (X_U1.72)    -.1929                       

(X_U1.73)    1.3243                   (X_U1.74)    3.3000                       

(X_U1.75)     .0100                   (X_U1.76)    3.3000                       

(X_U1.77)    0.0000                   (X_U1.78)     .5703                       

(X_U1.79)     .5610                   (X_U1.81)     .5657                       

(X_U1.86)     .5656                   (X_U1.91)    1.6500                       

(X_U1.92)    1.6500                   (X_U1.93)    2.1887                       

(X_U1.94)     .0491                   (X_U1.95)     .2000                       

(X_U1.96)     .0491                   (X_U1.97)    2.5000                       

(X_U1.98)     .0491                   (X_U1.99)     .0491                       

(X_U1.120)    3.6500                  (X_U1.121)    2.6500                      

(X_U1.122)    2.6570                  (X_U1.710)     .6845                      

(X_U1.720)    -.0375                  




    VOLTAGE SOURCE CURRENTS
    NAME         CURRENT

    V_V1        -1.411E-04
    V_V2        -1.767E-08
    X_U1.VOFF   -4.049E-13
    X_U1.VSENS1   1.000E-03
    X_U1.VTEMP   1.522E-08
    X_U1.VCMX   -1.573E-06
    X_U1.VPSX    0.000E+00
    X_U1.VCXX    6.024E-12
    X_U1.VOOP    4.580E-03
    X_U1.VOON    4.569E-03
    X_U1.VOX     1.109E-05
    X_U1.VFX1    1.109E-05
    X_U1.VFX2   -5.487E-13

    TOTAL POWER DISSIPATION   4.66E-04  WATTS


**** 06/01/20 15:50:22 ***** PSpice 16.6.0 (October 2012) ***** ID# 0 ********

 ** Profile: "SCHEMATIC1-1"  [ C:\Users\art_home\university\schem\sem6\dana\amp-PSpiceFiles\SCHEMATIC1\1.sim ] 


 ****     INITIAL TRANSIENT SOLUTION       TEMPERATURE =   27.000 DEG C

 ****     CURRENT STEP                     V_V2 =    6.0000E-03


******************************************************************************



 NODE   VOLTAGE     NODE   VOLTAGE     NODE   VOLTAGE     NODE   VOLTAGE


( +3.3)    3.3000  (N00185)     .6166 (N00194)     .0121 (N00225)     .0060     

(X_U1.10)    1.6500                   (X_U1.11)     .0500                       

(X_U1.17)    1.6500                   (X_U1.18)     .0121                       

(X_U1.19)     .0060                   (X_U1.21)     .4000                       

(X_U1.22)    3.7000                   (X_U1.23)    3.7000                       

(X_U1.24)    3.3051                   (X_U1.25)    2.6500                       

(X_U1.26)    2.6500                   (X_U1.27)    2.4838                       

(X_U1.28)    2.1969                   (X_U1.29)    1.6500                       

(X_U1.31)    5.6500                   (X_U1.32)    4.6500                       

(X_U1.33)    3.6500                   (X_U1.34)    2.6500                       

(X_U1.38)     .0500                   (X_U1.39)     .0500                       

(X_U1.40)    3.3000                   (X_U1.41)     .0780                       

(X_U1.42)    3.3000                   (X_U1.43)    1.6500                       

(X_U1.44)    1.6500                   (X_U1.45)    1.6500                       

(X_U1.50)    0.0000                   (X_U1.51)  100.9500                       

(X_U1.52)  -97.6500                   (X_U1.57)    1.6430                       

(X_U1.58)    1.6500                   (X_U1.59)     .6810                       

(X_U1.71)     .6800                   (X_U1.72)    -.1419                       

(X_U1.73)    1.3753                   (X_U1.74)    3.3000                       

(X_U1.75)     .0100                   (X_U1.76)    3.3000                       

(X_U1.77)    0.0000                   (X_U1.78)     .6213                       

(X_U1.79)     .6120                   (X_U1.81)     .6167                       

(X_U1.86)     .6166                   (X_U1.91)    1.6500                       

(X_U1.92)    1.6500                   (X_U1.93)    2.1909                       

(X_U1.94)     .0500                   (X_U1.95)     .2000                       

(X_U1.96)     .0500                   (X_U1.97)    2.5000                       

(X_U1.98)     .0500                   (X_U1.99)     .0500                       

(X_U1.120)    3.6500                  (X_U1.121)    2.6500                      

(X_U1.122)    2.6570                  (X_U1.710)     .7355                      

(X_U1.720)     .0135                  




    VOLTAGE SOURCE CURRENTS
    NAME         CURRENT

    V_V1        -1.421E-04
    V_V2        -1.767E-08
    X_U1.VOFF   -4.049E-13
    X_U1.VSENS1   1.000E-03
    X_U1.VTEMP   1.522E-08
    X_U1.VCMX   -1.572E-06
    X_U1.VPSX    0.000E+00
    X_U1.VCXX    5.895E-12
    X_U1.VOOP    4.580E-03
    X_U1.VOON    4.568E-03
    X_U1.VOX     1.209E-05
    X_U1.VFX1    1.209E-05
    X_U1.VFX2   -5.509E-13

    TOTAL POWER DISSIPATION   4.69E-04  WATTS


**** 06/01/20 15:50:22 ***** PSpice 16.6.0 (October 2012) ***** ID# 0 ********

 ** Profile: "SCHEMATIC1-1"  [ C:\Users\art_home\university\schem\sem6\dana\amp-PSpiceFiles\SCHEMATIC1\1.sim ] 


 ****     INITIAL TRANSIENT SOLUTION       TEMPERATURE =   27.000 DEG C

 ****     CURRENT STEP                     V_V2 =    7.0000E-03


******************************************************************************



 NODE   VOLTAGE     NODE   VOLTAGE     NODE   VOLTAGE     NODE   VOLTAGE


( +3.3)    3.3000  (N00185)     .6676 (N00194)     .0131 (N00225)     .0070     

(X_U1.10)    1.6500                   (X_U1.11)     .0510                       

(X_U1.17)    1.6500                   (X_U1.18)     .0131                       

(X_U1.19)     .0070                   (X_U1.21)     .4000                       

(X_U1.22)    3.7000                   (X_U1.23)    3.7000                       

(X_U1.24)    3.3051                   (X_U1.25)    2.6500                       

(X_U1.26)    2.6500                   (X_U1.27)    2.4838                       

(X_U1.28)    2.1969                   (X_U1.29)    1.6500                       

(X_U1.31)    5.6500                   (X_U1.32)    4.6500                       

(X_U1.33)    3.6500                   (X_U1.34)    2.6500                       

(X_U1.38)     .0510                   (X_U1.39)     .0510                       

(X_U1.40)    3.3000                   (X_U1.41)     .0790                       

(X_U1.42)    3.3000                   (X_U1.43)    1.6500                       

(X_U1.44)    1.6500                   (X_U1.45)    1.6500                       

(X_U1.50)    0.0000                   (X_U1.51)  100.9500                       

(X_U1.52)  -97.6500                   (X_U1.57)    1.6433                       

(X_U1.58)    1.6500                   (X_U1.59)     .7321                       

(X_U1.71)     .7311                   (X_U1.72)    -.0909                       

(X_U1.73)    1.4263                   (X_U1.74)    3.3000                       

(X_U1.75)     .0100                   (X_U1.76)    3.3000                       

(X_U1.77)    0.0000                   (X_U1.78)     .6723                       

(X_U1.79)     .6631                   (X_U1.81)     .6677                       

(X_U1.86)     .6676                   (X_U1.91)    1.6500                       

(X_U1.92)    1.6500                   (X_U1.93)    2.1930                       

(X_U1.94)     .0510                   (X_U1.95)     .2000                       

(X_U1.96)     .0510                   (X_U1.97)    2.5000                       

(X_U1.98)     .0510                   (X_U1.99)     .0510                       

(X_U1.120)    3.6500                  (X_U1.121)    2.6500                      

(X_U1.122)    2.6570                  (X_U1.710)     .7865                      

(X_U1.720)     .0646                  




    VOLTAGE SOURCE CURRENTS
    NAME         CURRENT

    V_V1        -1.431E-04
    V_V2        -1.767E-08
    X_U1.VOFF   -4.049E-13
    X_U1.VSENS1   1.000E-03
    X_U1.VTEMP   1.522E-08
    X_U1.VCMX   -1.571E-06
    X_U1.VPSX    0.000E+00
    X_U1.VCXX    5.771E-12
    X_U1.VOOP    4.581E-03
    X_U1.VOON    4.568E-03
    X_U1.VOX     1.309E-05
    X_U1.VFX1    1.309E-05
    X_U1.VFX2   -5.530E-13

    TOTAL POWER DISSIPATION   4.72E-04  WATTS


**** 06/01/20 15:50:22 ***** PSpice 16.6.0 (October 2012) ***** ID# 0 ********

 ** Profile: "SCHEMATIC1-1"  [ C:\Users\art_home\university\schem\sem6\dana\amp-PSpiceFiles\SCHEMATIC1\1.sim ] 


 ****     INITIAL TRANSIENT SOLUTION       TEMPERATURE =   27.000 DEG C

 ****     CURRENT STEP                     V_V2 =    8.0000E-03


******************************************************************************



 NODE   VOLTAGE     NODE   VOLTAGE     NODE   VOLTAGE     NODE   VOLTAGE


( +3.3)    3.3000  (N00185)     .7186 (N00194)     .0141 (N00225)     .0080     

(X_U1.10)    1.6500                   (X_U1.11)     .0520                       

(X_U1.17)    1.6500                   (X_U1.18)     .0141                       

(X_U1.19)     .0080                   (X_U1.21)     .4000                       

(X_U1.22)    3.7000                   (X_U1.23)    3.7000                       

(X_U1.24)    3.3051                   (X_U1.25)    2.6500                       

(X_U1.26)    2.6500                   (X_U1.27)    2.4838                       

(X_U1.28)    2.1969                   (X_U1.29)    1.6500                       

(X_U1.31)    5.6500                   (X_U1.32)    4.6500                       

(X_U1.33)    3.6500                   (X_U1.34)    2.6500                       

(X_U1.38)     .0520                   (X_U1.39)     .0520                       

(X_U1.40)    3.3000                   (X_U1.41)     .0799                       

(X_U1.42)    3.3000                   (X_U1.43)    1.6500                       

(X_U1.44)    1.6500                   (X_U1.45)    1.6500                       

(X_U1.50)    0.0000                   (X_U1.51)  100.9500                       

(X_U1.52)  -97.6500                   (X_U1.57)    1.6437                       

(X_U1.58)    1.6500                   (X_U1.59)     .7831                       

(X_U1.71)     .7821                   (X_U1.72)    -.0399                       

(X_U1.73)    1.4773                   (X_U1.74)    3.3000                       

(X_U1.75)     .0100                   (X_U1.76)    3.3000                       

(X_U1.77)    0.0000                   (X_U1.78)     .7233                       

(X_U1.79)     .7141                   (X_U1.81)     .7187                       

(X_U1.86)     .7186                   (X_U1.91)    1.6500                       

(X_U1.92)    1.6500                   (X_U1.93)    2.1949                       

(X_U1.94)     .0520                   (X_U1.95)     .2000                       

(X_U1.96)     .0520                   (X_U1.97)    2.5000                       

(X_U1.98)     .0520                   (X_U1.99)     .0520                       

(X_U1.120)    3.6500                  (X_U1.121)    2.6500                      

(X_U1.122)    2.6570                  (X_U1.710)     .8375                      

(X_U1.720)     .1156                  




    VOLTAGE SOURCE CURRENTS
    NAME         CURRENT

    V_V1        -1.441E-04
    V_V2        -1.767E-08
    X_U1.VOFF   -4.049E-13
    X_U1.VSENS1   1.000E-03
    X_U1.VTEMP   1.522E-08
    X_U1.VCMX   -1.570E-06
    X_U1.VPSX    0.000E+00
    X_U1.VCXX    5.652E-12
    X_U1.VOOP    4.581E-03
    X_U1.VOON    4.567E-03
    X_U1.VOX     1.409E-05
    X_U1.VFX1    1.409E-05
    X_U1.VFX2   -5.549E-13

    TOTAL POWER DISSIPATION   4.76E-04  WATTS


**** 06/01/20 15:50:22 ***** PSpice 16.6.0 (October 2012) ***** ID# 0 ********

 ** Profile: "SCHEMATIC1-1"  [ C:\Users\art_home\university\schem\sem6\dana\amp-PSpiceFiles\SCHEMATIC1\1.sim ] 


 ****     INITIAL TRANSIENT SOLUTION       TEMPERATURE =   27.000 DEG C

 ****     CURRENT STEP                     V_V2 =    9.0000E-03


******************************************************************************



 NODE   VOLTAGE     NODE   VOLTAGE     NODE   VOLTAGE     NODE   VOLTAGE


( +3.3)    3.3000  (N00185)     .7696 (N00194)     .0151 (N00225)     .0090     

(X_U1.10)    1.6500                   (X_U1.11)     .0530                       

(X_U1.17)    1.6500                   (X_U1.18)     .0151                       

(X_U1.19)     .0090                   (X_U1.21)     .4000                       

(X_U1.22)    3.7000                   (X_U1.23)    3.7000                       

(X_U1.24)    3.3051                   (X_U1.25)    2.6500                       

(X_U1.26)    2.6500                   (X_U1.27)    2.4838                       

(X_U1.28)    2.1969                   (X_U1.29)    1.6500                       

(X_U1.31)    5.6500                   (X_U1.32)    4.6500                       

(X_U1.33)    3.6500                   (X_U1.34)    2.6500                       

(X_U1.38)     .0530                   (X_U1.39)     .0530                       

(X_U1.40)    3.3000                   (X_U1.41)     .0809                       

(X_U1.42)    3.3000                   (X_U1.43)    1.6500                       

(X_U1.44)    1.6500                   (X_U1.45)    1.6500                       

(X_U1.50)    0.0000                   (X_U1.51)  100.9500                       

(X_U1.52)  -97.6500                   (X_U1.57)    1.6441                       

(X_U1.58)    1.6500                   (X_U1.59)     .8341                       

(X_U1.71)     .8331                   (X_U1.72)     .0111                       

(X_U1.73)    1.5283                   (X_U1.74)    3.3000                       

(X_U1.75)     .0100                   (X_U1.76)    3.3000                       

(X_U1.77)    0.0000                   (X_U1.78)     .7743                       

(X_U1.79)     .7651                   (X_U1.81)     .7697                       

(X_U1.86)     .7696                   (X_U1.91)    1.6500                       

(X_U1.92)    1.6500                   (X_U1.93)    2.1966                       

(X_U1.94)     .0530                   (X_U1.95)     .2000                       

(X_U1.96)     .0530                   (X_U1.97)    2.5000                       

(X_U1.98)     .0530                   (X_U1.99)     .0530                       

(X_U1.120)    3.6500                  (X_U1.121)    2.6500                      

(X_U1.122)    2.6570                  (X_U1.710)     .8885                      

(X_U1.720)     .1666                  




    VOLTAGE SOURCE CURRENTS
    NAME         CURRENT

    V_V1        -1.451E-04
    V_V2        -1.767E-08
    X_U1.VOFF   -4.049E-13
    X_U1.VSENS1   1.000E-03
    X_U1.VTEMP   1.522E-08
    X_U1.VCMX   -1.569E-06
    X_U1.VPSX    0.000E+00
    X_U1.VCXX    5.537E-12
    X_U1.VOOP    4.582E-03
    X_U1.VOON    4.567E-03
    X_U1.VOX     1.509E-05
    X_U1.VFX1    1.509E-05
    X_U1.VFX2   -5.566E-13

    TOTAL POWER DISSIPATION   4.79E-04  WATTS


**** 06/01/20 15:50:22 ***** PSpice 16.6.0 (October 2012) ***** ID# 0 ********

 ** Profile: "SCHEMATIC1-1"  [ C:\Users\art_home\university\schem\sem6\dana\amp-PSpiceFiles\SCHEMATIC1\1.sim ] 


 ****     INITIAL TRANSIENT SOLUTION       TEMPERATURE =   27.000 DEG C

 ****     CURRENT STEP                     V_V2 =     .01  


******************************************************************************



 NODE   VOLTAGE     NODE   VOLTAGE     NODE   VOLTAGE     NODE   VOLTAGE


( +3.3)    3.3000  (N00185)     .8206 (N00194)     .0161 (N00225)     .0100     

(X_U1.10)    1.6500                   (X_U1.11)     .0539                       

(X_U1.17)    1.6500                   (X_U1.18)     .0161                       

(X_U1.19)     .0100                   (X_U1.21)     .4000                       

(X_U1.22)    3.7000                   (X_U1.23)    3.7000                       

(X_U1.24)    3.3051                   (X_U1.25)    2.6500                       

(X_U1.26)    2.6500                   (X_U1.27)    2.4838                       

(X_U1.28)    2.1969                   (X_U1.29)    1.6500                       

(X_U1.31)    5.6500                   (X_U1.32)    4.6500                       

(X_U1.33)    3.6500                   (X_U1.34)    2.6500                       

(X_U1.38)     .0539                   (X_U1.39)     .0539                       

(X_U1.40)    3.3000                   (X_U1.41)     .0818                       

(X_U1.42)    3.3000                   (X_U1.43)    1.6500                       

(X_U1.44)    1.6500                   (X_U1.45)    1.6500                       

(X_U1.50)    0.0000                   (X_U1.51)  100.9500                       

(X_U1.52)  -97.6500                   (X_U1.57)    1.6445                       

(X_U1.58)    1.6500                   (X_U1.59)     .8851                       

(X_U1.71)     .8841                   (X_U1.72)     .0622                       

(X_U1.73)    1.5794                   (X_U1.74)    3.3000                       

(X_U1.75)     .0100                   (X_U1.76)    3.3000                       

(X_U1.77)    0.0000                   (X_U1.78)     .8253                       

(X_U1.79)     .8161                   (X_U1.81)     .8207                       

(X_U1.86)     .8206                   (X_U1.91)    1.6500                       

(X_U1.92)    1.6500                   (X_U1.93)    2.1983                       

(X_U1.94)     .0539                   (X_U1.95)     .2000                       

(X_U1.96)     .0539                   (X_U1.97)    2.5000                       

(X_U1.98)     .0539                   (X_U1.99)     .0539                       

(X_U1.120)    3.6500                  (X_U1.121)    2.6500                      

(X_U1.122)    2.6570                  (X_U1.710)     .9395                      

(X_U1.720)     .2176                  




    VOLTAGE SOURCE CURRENTS
    NAME         CURRENT

    V_V1        -1.461E-04
    V_V2        -1.767E-08
    X_U1.VOFF   -4.049E-13
    X_U1.VSENS1   1.000E-03
    X_U1.VTEMP   1.522E-08
    X_U1.VCMX   -1.568E-06
    X_U1.VPSX    0.000E+00
    X_U1.VCXX    5.426E-12
    X_U1.VOOP    4.582E-03
    X_U1.VOON    4.566E-03
    X_U1.VOX     1.609E-05
    X_U1.VFX1    1.609E-05
    X_U1.VFX2   -5.583E-13

    TOTAL POWER DISSIPATION   4.82E-04  WATTS


**** 06/01/20 15:50:22 ***** PSpice 16.6.0 (October 2012) ***** ID# 0 ********

 ** Profile: "SCHEMATIC1-1"  [ C:\Users\art_home\university\schem\sem6\dana\amp-PSpiceFiles\SCHEMATIC1\1.sim ] 


 ****     INITIAL TRANSIENT SOLUTION       TEMPERATURE =   27.000 DEG C

 ****     CURRENT STEP                     V_V2 =     .011 


******************************************************************************



 NODE   VOLTAGE     NODE   VOLTAGE     NODE   VOLTAGE     NODE   VOLTAGE


( +3.3)    3.3000  (N00185)     .8716 (N00194)     .0171 (N00225)     .0110     

(X_U1.10)    1.6500                   (X_U1.11)     .0549                       

(X_U1.17)    1.6500                   (X_U1.18)     .0171                       

(X_U1.19)     .0110                   (X_U1.21)     .4000                       

(X_U1.22)    3.7000                   (X_U1.23)    3.7000                       

(X_U1.24)    3.3051                   (X_U1.25)    2.6500                       

(X_U1.26)    2.6500                   (X_U1.27)    2.4838                       

(X_U1.28)    2.1969                   (X_U1.29)    1.6500                       

(X_U1.31)    5.6500                   (X_U1.32)    4.6500                       

(X_U1.33)    3.6500                   (X_U1.34)    2.6500                       

(X_U1.38)     .0549                   (X_U1.39)     .0549                       

(X_U1.40)    3.3000                   (X_U1.41)     .0828                       

(X_U1.42)    3.3000                   (X_U1.43)    1.6500                       

(X_U1.44)    1.6500                   (X_U1.45)    1.6500                       

(X_U1.50)    0.0000                   (X_U1.51)  100.9500                       

(X_U1.52)  -97.6500                   (X_U1.57)    1.6448                       

(X_U1.58)    1.6500                   (X_U1.59)     .9361                       

(X_U1.71)     .9351                   (X_U1.72)     .1132                       

(X_U1.73)    1.6304                   (X_U1.74)    3.3000                       

(X_U1.75)     .0100                   (X_U1.76)    3.3000                       

(X_U1.77)    0.0000                   (X_U1.78)     .8763                       

(X_U1.79)     .8671                   (X_U1.81)     .8717                       

(X_U1.86)     .8716                   (X_U1.91)    1.6500                       

(X_U1.92)    1.6500                   (X_U1.93)    2.1999                       

(X_U1.94)     .0549                   (X_U1.95)     .2000                       

(X_U1.96)     .0549                   (X_U1.97)    2.5000                       

(X_U1.98)     .0549                   (X_U1.99)     .0549                       

(X_U1.120)    3.6500                  (X_U1.121)    2.6500                      

(X_U1.122)    2.6570                  (X_U1.710)     .9905                      

(X_U1.720)     .2686                  




    VOLTAGE SOURCE CURRENTS
    NAME         CURRENT

    V_V1        -1.471E-04
    V_V2        -1.767E-08
    X_U1.VOFF   -4.049E-13
    X_U1.VSENS1   1.000E-03
    X_U1.VTEMP   1.522E-08
    X_U1.VCMX   -1.567E-06
    X_U1.VPSX    0.000E+00
    X_U1.VCXX    5.319E-12
    X_U1.VOOP    4.583E-03
    X_U1.VOON    4.566E-03
    X_U1.VOX     1.709E-05
    X_U1.VFX1    1.709E-05
    X_U1.VFX2   -5.599E-13

    TOTAL POWER DISSIPATION   4.85E-04  WATTS


**** 06/01/20 15:50:22 ***** PSpice 16.6.0 (October 2012) ***** ID# 0 ********

 ** Profile: "SCHEMATIC1-1"  [ C:\Users\art_home\university\schem\sem6\dana\amp-PSpiceFiles\SCHEMATIC1\1.sim ] 


 ****     INITIAL TRANSIENT SOLUTION       TEMPERATURE =   27.000 DEG C

 ****     CURRENT STEP                     V_V2 =     .012 


******************************************************************************



 NODE   VOLTAGE     NODE   VOLTAGE     NODE   VOLTAGE     NODE   VOLTAGE


( +3.3)    3.3000  (N00185)     .9226 (N00194)     .0181 (N00225)     .0120     

(X_U1.10)    1.6500                   (X_U1.11)     .0559                       

(X_U1.17)    1.6500                   (X_U1.18)     .0181                       

(X_U1.19)     .0120                   (X_U1.21)     .4000                       

(X_U1.22)    3.7000                   (X_U1.23)    3.7000                       

(X_U1.24)    3.3051                   (X_U1.25)    2.6500                       

(X_U1.26)    2.6500                   (X_U1.27)    2.4838                       

(X_U1.28)    2.1969                   (X_U1.29)    1.6500                       

(X_U1.31)    5.6500                   (X_U1.32)    4.6500                       

(X_U1.33)    3.6500                   (X_U1.34)    2.6500                       

(X_U1.38)     .0559                   (X_U1.39)     .0559                       

(X_U1.40)    3.3000                   (X_U1.41)     .0838                       

(X_U1.42)    3.3000                   (X_U1.43)    1.6500                       

(X_U1.44)    1.6500                   (X_U1.45)    1.6500                       

(X_U1.50)    0.0000                   (X_U1.51)  100.9500                       

(X_U1.52)  -97.6500                   (X_U1.57)    1.6452                       

(X_U1.58)    1.6500                   (X_U1.59)     .9871                       

(X_U1.71)     .9861                   (X_U1.72)     .1642                       

(X_U1.73)    1.6814                   (X_U1.74)    3.3000                       

(X_U1.75)     .0100                   (X_U1.76)    3.3000                       

(X_U1.77)    0.0000                   (X_U1.78)     .9274                       

(X_U1.79)     .9181                   (X_U1.81)     .9227                       

(X_U1.86)     .9226                   (X_U1.91)    1.6500                       

(X_U1.92)    1.6500                   (X_U1.93)    2.2013                       

(X_U1.94)     .0559                   (X_U1.95)     .2000                       

(X_U1.96)     .0559                   (X_U1.97)    2.5000                       

(X_U1.98)     .0559                   (X_U1.99)     .0559                       

(X_U1.120)    3.6500                  (X_U1.121)    2.6500                      

(X_U1.122)    2.6570                  (X_U1.710)    1.0415                      

(X_U1.720)     .3196                  




    VOLTAGE SOURCE CURRENTS
    NAME         CURRENT

    V_V1        -1.481E-04
    V_V2        -1.767E-08
    X_U1.VOFF   -4.049E-13
    X_U1.VSENS1   1.000E-03
    X_U1.VTEMP   1.522E-08
    X_U1.VCMX   -1.566E-06
    X_U1.VPSX    0.000E+00
    X_U1.VCXX    5.216E-12
    X_U1.VOOP    4.583E-03
    X_U1.VOON    4.565E-03
    X_U1.VOX     1.809E-05
    X_U1.VFX1    1.809E-05
    X_U1.VFX2   -5.613E-13

    TOTAL POWER DISSIPATION   4.89E-04  WATTS


**** 06/01/20 15:50:22 ***** PSpice 16.6.0 (October 2012) ***** ID# 0 ********

 ** Profile: "SCHEMATIC1-1"  [ C:\Users\art_home\university\schem\sem6\dana\amp-PSpiceFiles\SCHEMATIC1\1.sim ] 


 ****     INITIAL TRANSIENT SOLUTION       TEMPERATURE =   27.000 DEG C

 ****     CURRENT STEP                     V_V2 =     .013 


******************************************************************************



 NODE   VOLTAGE     NODE   VOLTAGE     NODE   VOLTAGE     NODE   VOLTAGE


( +3.3)    3.3000  (N00185)     .9736 (N00194)     .0191 (N00225)     .0130     

(X_U1.10)    1.6500                   (X_U1.11)     .0569                       

(X_U1.17)    1.6500                   (X_U1.18)     .0191                       

(X_U1.19)     .0130                   (X_U1.21)     .4000                       

(X_U1.22)    3.7000                   (X_U1.23)    3.7000                       

(X_U1.24)    3.3051                   (X_U1.25)    2.6500                       

(X_U1.26)    2.6500                   (X_U1.27)    2.4838                       

(X_U1.28)    2.1969                   (X_U1.29)    1.6500                       

(X_U1.31)    5.6500                   (X_U1.32)    4.6500                       

(X_U1.33)    3.6500                   (X_U1.34)    2.6500                       

(X_U1.38)     .0569                   (X_U1.39)     .0569                       

(X_U1.40)    3.3000                   (X_U1.41)     .0847                       

(X_U1.42)    3.3000                   (X_U1.43)    1.6500                       

(X_U1.44)    1.6500                   (X_U1.45)    1.6500                       

(X_U1.50)    0.0000                   (X_U1.51)  100.9500                       

(X_U1.52)  -97.6500                   (X_U1.57)    1.6456                       

(X_U1.58)    1.6500                   (X_U1.59)    1.0381                       

(X_U1.71)    1.0371                   (X_U1.72)     .2152                       

(X_U1.73)    1.7324                   (X_U1.74)    3.3000                       

(X_U1.75)     .0100                   (X_U1.76)    3.3000                       

(X_U1.77)    0.0000                   (X_U1.78)     .9784                       

(X_U1.79)     .9691                   (X_U1.81)     .9737                       

(X_U1.86)     .9736                   (X_U1.91)    1.6500                       

(X_U1.92)    1.6500                   (X_U1.93)    2.2027                       

(X_U1.94)     .0569                   (X_U1.95)     .2000                       

(X_U1.96)     .0569                   (X_U1.97)    2.5000                       

(X_U1.98)     .0569                   (X_U1.99)     .0569                       

(X_U1.120)    3.6500                  (X_U1.121)    2.6500                      

(X_U1.122)    2.6570                  (X_U1.710)    1.0926                      

(X_U1.720)     .3706                  




    VOLTAGE SOURCE CURRENTS
    NAME         CURRENT

    V_V1        -1.491E-04
    V_V2        -1.767E-08
    X_U1.VOFF   -4.049E-13
    X_U1.VSENS1   1.000E-03
    X_U1.VTEMP   1.522E-08
    X_U1.VCMX   -1.565E-06
    X_U1.VPSX    0.000E+00
    X_U1.VCXX    5.117E-12
    X_U1.VOOP    4.584E-03
    X_U1.VOON    4.565E-03
    X_U1.VOX     1.909E-05
    X_U1.VFX1    1.909E-05
    X_U1.VFX2   -5.627E-13

    TOTAL POWER DISSIPATION   4.92E-04  WATTS


**** 06/01/20 15:50:22 ***** PSpice 16.6.0 (October 2012) ***** ID# 0 ********

 ** Profile: "SCHEMATIC1-1"  [ C:\Users\art_home\university\schem\sem6\dana\amp-PSpiceFiles\SCHEMATIC1\1.sim ] 


 ****     INITIAL TRANSIENT SOLUTION       TEMPERATURE =   27.000 DEG C

 ****     CURRENT STEP                     V_V2 =     .014 


******************************************************************************



 NODE   VOLTAGE     NODE   VOLTAGE     NODE   VOLTAGE     NODE   VOLTAGE


( +3.3)    3.3000  (N00185)    1.0246 (N00194)     .0201 (N00225)     .0140     

(X_U1.10)    1.6500                   (X_U1.11)     .0578                       

(X_U1.17)    1.6500                   (X_U1.18)     .0201                       

(X_U1.19)     .0140                   (X_U1.21)     .4000                       

(X_U1.22)    3.7000                   (X_U1.23)    3.7000                       

(X_U1.24)    3.3051                   (X_U1.25)    2.6500                       

(X_U1.26)    2.6500                   (X_U1.27)    2.4838                       

(X_U1.28)    2.1969                   (X_U1.29)    1.6500                       

(X_U1.31)    5.6500                   (X_U1.32)    4.6500                       

(X_U1.33)    3.6500                   (X_U1.34)    2.6500                       

(X_U1.38)     .0578                   (X_U1.39)     .0578                       

(X_U1.40)    3.3000                   (X_U1.41)     .0857                       

(X_U1.42)    3.3000                   (X_U1.43)    1.6500                       

(X_U1.44)    1.6500                   (X_U1.45)    1.6500                       

(X_U1.50)    0.0000                   (X_U1.51)  100.9500                       

(X_U1.52)  -97.6500                   (X_U1.57)    1.6459                       

(X_U1.58)    1.6500                   (X_U1.59)    1.0892                       

(X_U1.71)    1.0882                   (X_U1.72)     .2662                       

(X_U1.73)    1.7834                   (X_U1.74)    3.3000                       

(X_U1.75)     .0100                   (X_U1.76)    3.3000                       

(X_U1.77)    0.0000                   (X_U1.78)    1.0294                       

(X_U1.79)    1.0201                   (X_U1.81)    1.0247                       

(X_U1.86)    1.0246                   (X_U1.91)    1.6500                       

(X_U1.92)    1.6500                   (X_U1.93)    2.2040                       

(X_U1.94)     .0578                   (X_U1.95)     .2000                       

(X_U1.96)     .0578                   (X_U1.97)    2.5000                       

(X_U1.98)     .0578                   (X_U1.99)     .0578                       

(X_U1.120)    3.6500                  (X_U1.121)    2.6500                      

(X_U1.122)    2.6570                  (X_U1.710)    1.1436                      

(X_U1.720)     .4217                  




    VOLTAGE SOURCE CURRENTS
    NAME         CURRENT

    V_V1        -1.501E-04
    V_V2        -1.767E-08
    X_U1.VOFF   -4.049E-13
    X_U1.VSENS1   1.000E-03
    X_U1.VTEMP   1.522E-08
    X_U1.VCMX   -1.564E-06
    X_U1.VPSX    0.000E+00
    X_U1.VCXX    5.022E-12
    X_U1.VOOP    4.584E-03
    X_U1.VOON    4.564E-03
    X_U1.VOX     2.009E-05
    X_U1.VFX1    2.009E-05
    X_U1.VFX2   -5.640E-13

    TOTAL POWER DISSIPATION   4.95E-04  WATTS


**** 06/01/20 15:50:22 ***** PSpice 16.6.0 (October 2012) ***** ID# 0 ********

 ** Profile: "SCHEMATIC1-1"  [ C:\Users\art_home\university\schem\sem6\dana\amp-PSpiceFiles\SCHEMATIC1\1.sim ] 


 ****     INITIAL TRANSIENT SOLUTION       TEMPERATURE =   27.000 DEG C

 ****     CURRENT STEP                     V_V2 =     .015 


******************************************************************************



 NODE   VOLTAGE     NODE   VOLTAGE     NODE   VOLTAGE     NODE   VOLTAGE


( +3.3)    3.3000  (N00185)    1.0756 (N00194)     .0211 (N00225)     .0150     

(X_U1.10)    1.6500                   (X_U1.11)     .0588                       

(X_U1.17)    1.6500                   (X_U1.18)     .0211                       

(X_U1.19)     .0150                   (X_U1.21)     .4000                       

(X_U1.22)    3.7000                   (X_U1.23)    3.7000                       

(X_U1.24)    3.3051                   (X_U1.25)    2.6500                       

(X_U1.26)    2.6500                   (X_U1.27)    2.4838                       

(X_U1.28)    2.1969                   (X_U1.29)    1.6500                       

(X_U1.31)    5.6500                   (X_U1.32)    4.6500                       

(X_U1.33)    3.6500                   (X_U1.34)    2.6500                       

(X_U1.38)     .0588                   (X_U1.39)     .0588                       

(X_U1.40)    3.3000                   (X_U1.41)     .0866                       

(X_U1.42)    3.3000                   (X_U1.43)    1.6500                       

(X_U1.44)    1.6500                   (X_U1.45)    1.6500                       

(X_U1.50)    0.0000                   (X_U1.51)  100.9500                       

(X_U1.52)  -97.6500                   (X_U1.57)    1.6463                       

(X_U1.58)    1.6500                   (X_U1.59)    1.1402                       

(X_U1.71)    1.1392                   (X_U1.72)     .3172                       

(X_U1.73)    1.8344                   (X_U1.74)    3.3000                       

(X_U1.75)     .0100                   (X_U1.76)    3.3000                       

(X_U1.77)    0.0000                   (X_U1.78)    1.0804                       

(X_U1.79)    1.0711                   (X_U1.81)    1.0758                       

(X_U1.86)    1.0756                   (X_U1.91)    1.6500                       

(X_U1.92)    1.6500                   (X_U1.93)    2.2053                       

(X_U1.94)     .0588                   (X_U1.95)     .2000                       

(X_U1.96)     .0588                   (X_U1.97)    2.5000                       

(X_U1.98)     .0588                   (X_U1.99)     .0588                       

(X_U1.120)    3.6500                  (X_U1.121)    2.6500                      

(X_U1.122)    2.6570                  (X_U1.710)    1.1946                      

(X_U1.720)     .4727                  




    VOLTAGE SOURCE CURRENTS
    NAME         CURRENT

    V_V1        -1.511E-04
    V_V2        -1.767E-08
    X_U1.VOFF   -4.049E-13
    X_U1.VSENS1   1.000E-03
    X_U1.VTEMP   1.522E-08
    X_U1.VCMX   -1.563E-06
    X_U1.VPSX    0.000E+00
    X_U1.VCXX    4.930E-12
    X_U1.VOOP    4.585E-03
    X_U1.VOON    4.564E-03
    X_U1.VOX     2.109E-05
    X_U1.VFX1    2.109E-05
    X_U1.VFX2   -5.653E-13

    TOTAL POWER DISSIPATION   4.99E-04  WATTS


**** 06/01/20 15:50:22 ***** PSpice 16.6.0 (October 2012) ***** ID# 0 ********

 ** Profile: "SCHEMATIC1-1"  [ C:\Users\art_home\university\schem\sem6\dana\amp-PSpiceFiles\SCHEMATIC1\1.sim ] 


 ****     INITIAL TRANSIENT SOLUTION       TEMPERATURE =   27.000 DEG C

 ****     CURRENT STEP                     V_V2 =     .016 


******************************************************************************



 NODE   VOLTAGE     NODE   VOLTAGE     NODE   VOLTAGE     NODE   VOLTAGE


( +3.3)    3.3000  (N00185)    1.1266 (N00194)     .0221 (N00225)     .0160     

(X_U1.10)    1.6500                   (X_U1.11)     .0598                       

(X_U1.17)    1.6500                   (X_U1.18)     .0221                       

(X_U1.19)     .0160                   (X_U1.21)     .4000                       

(X_U1.22)    3.7000                   (X_U1.23)    3.7000                       

(X_U1.24)    3.3051                   (X_U1.25)    2.6500                       

(X_U1.26)    2.6500                   (X_U1.27)    2.4838                       

(X_U1.28)    2.1969                   (X_U1.29)    1.6500                       

(X_U1.31)    5.6500                   (X_U1.32)    4.6500                       

(X_U1.33)    3.6500                   (X_U1.34)    2.6500                       

(X_U1.38)     .0598                   (X_U1.39)     .0598                       

(X_U1.40)    3.3000                   (X_U1.41)     .0876                       

(X_U1.42)    3.3000                   (X_U1.43)    1.6500                       

(X_U1.44)    1.6500                   (X_U1.45)    1.6500                       

(X_U1.50)    0.0000                   (X_U1.51)  100.9500                       

(X_U1.52)  -97.6500                   (X_U1.57)    1.6467                       

(X_U1.58)    1.6500                   (X_U1.59)    1.1912                       

(X_U1.71)    1.1902                   (X_U1.72)     .3682                       

(X_U1.73)    1.8854                   (X_U1.74)    3.3000                       

(X_U1.75)     .0100                   (X_U1.76)    3.3000                       

(X_U1.77)    0.0000                   (X_U1.78)    1.1314                       

(X_U1.79)    1.1222                   (X_U1.81)    1.1268                       

(X_U1.86)    1.1266                   (X_U1.91)    1.6500                       

(X_U1.92)    1.6500                   (X_U1.93)    2.2065                       

(X_U1.94)     .0598                   (X_U1.95)     .2000                       

(X_U1.96)     .0598                   (X_U1.97)    2.5000                       

(X_U1.98)     .0598                   (X_U1.99)     .0598                       

(X_U1.120)    3.6500                  (X_U1.121)    2.6500                      

(X_U1.122)    2.6570                  (X_U1.710)    1.2456                      

(X_U1.720)     .5237                  




    VOLTAGE SOURCE CURRENTS
    NAME         CURRENT

    V_V1        -1.521E-04
    V_V2        -1.767E-08
    X_U1.VOFF   -4.049E-13
    X_U1.VSENS1   1.000E-03
    X_U1.VTEMP   1.522E-08
    X_U1.VCMX   -1.562E-06
    X_U1.VPSX    0.000E+00
    X_U1.VCXX    4.841E-12
    X_U1.VOOP    4.585E-03
    X_U1.VOON    4.563E-03
    X_U1.VOX     2.209E-05
    X_U1.VFX1    2.209E-05
    X_U1.VFX2   -5.665E-13

    TOTAL POWER DISSIPATION   5.02E-04  WATTS


**** 06/01/20 15:50:22 ***** PSpice 16.6.0 (October 2012) ***** ID# 0 ********

 ** Profile: "SCHEMATIC1-1"  [ C:\Users\art_home\university\schem\sem6\dana\amp-PSpiceFiles\SCHEMATIC1\1.sim ] 


 ****     INITIAL TRANSIENT SOLUTION       TEMPERATURE =   27.000 DEG C

 ****     CURRENT STEP                     V_V2 =     .017 


******************************************************************************



 NODE   VOLTAGE     NODE   VOLTAGE     NODE   VOLTAGE     NODE   VOLTAGE


( +3.3)    3.3000  (N00185)    1.1776 (N00194)     .0231 (N00225)     .0170     

(X_U1.10)    1.6500                   (X_U1.11)     .0608                       

(X_U1.17)    1.6500                   (X_U1.18)     .0231                       

(X_U1.19)     .0170                   (X_U1.21)     .4000                       

(X_U1.22)    3.7000                   (X_U1.23)    3.7000                       

(X_U1.24)    3.3051                   (X_U1.25)    2.6500                       

(X_U1.26)    2.6500                   (X_U1.27)    2.4838                       

(X_U1.28)    2.1969                   (X_U1.29)    1.6500                       

(X_U1.31)    5.6500                   (X_U1.32)    4.6500                       

(X_U1.33)    3.6500                   (X_U1.34)    2.6500                       

(X_U1.38)     .0608                   (X_U1.39)     .0608                       

(X_U1.40)    3.3000                   (X_U1.41)     .0885                       

(X_U1.42)    3.3000                   (X_U1.43)    1.6500                       

(X_U1.44)    1.6500                   (X_U1.45)    1.6500                       

(X_U1.50)    0.0000                   (X_U1.51)  100.9500                       

(X_U1.52)  -97.6500                   (X_U1.57)    1.6470                       

(X_U1.58)    1.6500                   (X_U1.59)    1.2422                       

(X_U1.71)    1.2412                   (X_U1.72)     .4193                       

(X_U1.73)    1.9364                   (X_U1.74)    3.3000                       

(X_U1.75)     .0100                   (X_U1.76)    3.3000                       

(X_U1.77)    0.0000                   (X_U1.78)    1.1824                       

(X_U1.79)    1.1732                   (X_U1.81)    1.1778                       

(X_U1.86)    1.1776                   (X_U1.91)    1.6500                       

(X_U1.92)    1.6500                   (X_U1.93)    2.2076                       

(X_U1.94)     .0608                   (X_U1.95)     .2000                       

(X_U1.96)     .0608                   (X_U1.97)    2.5000                       

(X_U1.98)     .0608                   (X_U1.99)     .0608                       

(X_U1.120)    3.6500                  (X_U1.121)    2.6500                      

(X_U1.122)    2.6570                  (X_U1.710)    1.2966                      

(X_U1.720)     .5747                  




    VOLTAGE SOURCE CURRENTS
    NAME         CURRENT

    V_V1        -1.531E-04
    V_V2        -1.767E-08
    X_U1.VOFF   -4.049E-13
    X_U1.VSENS1   1.000E-03
    X_U1.VTEMP   1.522E-08
    X_U1.VCMX   -1.561E-06
    X_U1.VPSX    0.000E+00
    X_U1.VCXX    4.755E-12
    X_U1.VOOP    4.586E-03
    X_U1.VOON    4.563E-03
    X_U1.VOX     2.309E-05
    X_U1.VFX1    2.309E-05
    X_U1.VFX2   -5.676E-13

    TOTAL POWER DISSIPATION   5.05E-04  WATTS



          JOB CONCLUDED

**** 06/01/20 15:50:22 ***** PSpice 16.6.0 (October 2012) ***** ID# 0 ********

 ** Profile: "SCHEMATIC1-1"  [ C:\Users\art_home\university\schem\sem6\dana\amp-PSpiceFiles\SCHEMATIC1\1.sim ] 


 ****     JOB STATISTICS SUMMARY

 ****     CURRENT STEP                     V_V2 =     .017 


******************************************************************************



  Total job time (using Solver 1)   =         .42
